* Extracted by KLayout with SG13G2 LVS runset on : 24/10/2025 17:10

.SUBCKT SP03 vss in_srout vdd_block vdd_periph out_srout out_latch clk
+ out_shift in_latch in_srin in_shift out_srin out_l2s
X$2 vss out_l2s out_shift out_srout vdd_periph out_srin clk out_latch in_latch
+ in_shift in_srin in_srout vdd_block SP6TBlock_512x32_342A4WE_Test
.ENDS SP03

.SUBCKT SP6TBlock_512x32_342A4WE_Test vss out_l2s out_shift out_srout
+ vdd_periph out_srin clk out_latch in_latch in_shift in_srin in_srout vdd_block
X$1 vss clk \$65 \$16 \$66 \$17 \$67 \$18 \$68 \$19 \$97 \$20 \$69 \$21 \$70
+ \$22 \$71 \$23 \$72 \$73 \$24 \$74 \$25 \$75 \$26 \$76 \$27 \$98 \$28 \$77
+ \$29 \$78 \$30 \$79 \$31 \$80 \$81 \$32 \$82 \$33 \$83 \$34 \$84 \$35 \$99
+ \$36 \$85 \$37 \$86 \$38 \$87 \$39 \$88 \$89 \$40 \$90 \$41 \$91 \$42 \$92
+ \$43 \$100 \$44 \$93 \$45 \$94 \$46 \$95 \$47 \$96 \$64 \$63 vdd_block \$56
+ \$57 \$58 \$59 \$62 \$61 \$60 SP6TBlock_512x32_342A4WE
X$2 vss in_shift \$50 vdd_periph \$51 in_latch \$65 \$66 \$67 \$68 \$97 \$69
+ \$70 \$71 \$72 SP6TTimingIn_9SL
X$3 vss out_shift out_l2s \$6 vdd_periph \$5 out_latch \$16 \$17 \$18 \$19 \$20
+ \$21 \$22 \$23 SP6TTimingOut_8SL
X$4 vss in_shift \$53 vdd_periph in_srout in_latch \$89 \$90 \$91 \$92 \$100
+ \$93 \$94 \$95 \$96 SP6TTimingIn_9SL
X$5 vss out_shift out_l2s out_srout vdd_periph \$8 out_latch \$40 \$41 \$42
+ \$43 \$44 \$45 \$46 \$47 SP6TTimingOut_8SL
X$6 vss in_shift \$52 vdd_periph \$53 in_latch \$81 \$82 \$83 \$84 \$99 \$85
+ \$86 \$87 \$88 SP6TTimingIn_9SL
X$7 vss out_shift out_l2s \$8 vdd_periph \$7 out_latch \$32 \$33 \$34 \$35 \$36
+ \$37 \$38 \$39 SP6TTimingOut_8SL
X$8 vss in_shift \$51 vdd_periph \$52 in_latch \$73 \$74 \$75 \$76 \$98 \$77
+ \$78 \$79 \$80 SP6TTimingIn_9SL
X$9 vss out_shift out_l2s \$7 vdd_periph \$6 out_latch \$24 \$25 \$26 \$27 \$28
+ \$29 \$30 \$31 SP6TTimingOut_8SL
X$10 vss in_shift in_srin vdd_periph \$50 in_latch \$56 \$57 \$58 \$59 \$60
+ \$61 \$62 \$63 \$64 SP6TTimingIn_9SF
X$14 vss vdd_periph out_shift out_l2s in_latch out_latch clk out_srin \$5
+ SP6TTimingOut_2SL
.ENDS SP6TBlock_512x32_342A4WE_Test

.SUBCKT SP6TTimingOut_2SL vss vdd sr_shift l2s o[0] o[1] sr_latch sr_in sr_out
X$1 vss \$11 \$10 sr_shift vdd dff_x1
X$2 vss o[0] \$12 sr_latch vdd dff_x1
X$3 vdd vss l2s sr_in \$12 \$11 mux2_x1
X$4 vdd vss l2s \$10 \$15 \$14 mux2_x1
X$5 vss \$14 sr_out sr_shift vdd dff_x1
X$6 vss o[1] \$15 sr_latch vdd dff_x1
.ENDS SP6TTimingOut_2SL

.SUBCKT SP6TTimingOut_8SL vss sr_shift l2s sr_out vdd sr_in sr_latch o[0] o[1]
+ o[2] o[3] o[4] o[5] o[6] o[7]
X$1 vss \$9 \$10 sr_shift vdd dff_x1
X$2 vss o[0] \$25 sr_latch vdd dff_x1
X$3 vdd vss l2s sr_in \$25 \$9 mux2_x1
X$4 vdd vss l2s \$10 \$5 \$11 mux2_x1
X$5 vss \$11 \$12 sr_shift vdd dff_x1
X$6 vss o[1] \$5 sr_latch vdd dff_x1
X$7 vss \$13 \$14 sr_shift vdd dff_x1
X$8 vss o[2] \$26 sr_latch vdd dff_x1
X$9 vdd vss l2s \$12 \$26 \$13 mux2_x1
X$10 vdd vss l2s \$14 \$6 \$15 mux2_x1
X$11 vss \$15 \$16 sr_shift vdd dff_x1
X$12 vss o[3] \$6 sr_latch vdd dff_x1
X$13 vss \$17 \$18 sr_shift vdd dff_x1
X$14 vss o[4] \$28 sr_latch vdd dff_x1
X$15 vdd vss l2s \$16 \$28 \$17 mux2_x1
X$16 vdd vss l2s \$18 \$7 \$19 mux2_x1
X$17 vss \$19 \$20 sr_shift vdd dff_x1
X$18 vss o[5] \$7 sr_latch vdd dff_x1
X$19 vss \$21 \$22 sr_shift vdd dff_x1
X$20 vss o[6] \$29 sr_latch vdd dff_x1
X$21 vdd vss l2s \$20 \$29 \$21 mux2_x1
X$22 vdd vss l2s \$22 \$8 \$23 mux2_x1
X$23 vss \$23 sr_out sr_shift vdd dff_x1
X$24 vss o[7] \$8 sr_latch vdd dff_x1
.ENDS SP6TTimingOut_8SL

.SUBCKT SP6TTimingIn_9SL vss sr_shift sr_in vdd sr_out sr_latch i[0] i[1] i[2]
+ i[3] i[4] i[5] i[6] i[7] i[8]
X$1 vss sr_in \$5 sr_shift vdd dff_x1
X$2 vss \$5 i[0] sr_latch vdd dff_x1
X$3 vss \$5 \$6 sr_shift vdd dff_x1
X$4 vss \$6 i[1] sr_latch vdd dff_x1
X$5 vss \$6 \$7 sr_shift vdd dff_x1
X$6 vss \$7 i[2] sr_latch vdd dff_x1
X$7 vss \$7 \$8 sr_shift vdd dff_x1
X$8 vss \$8 i[3] sr_latch vdd dff_x1
X$9 vss \$8 \$9 sr_shift vdd dff_x1
X$10 vss \$9 i[4] sr_latch vdd dff_x1
X$11 vss \$9 \$10 sr_shift vdd dff_x1
X$12 vss \$10 i[5] sr_latch vdd dff_x1
X$13 vss \$10 \$11 sr_shift vdd dff_x1
X$14 vss \$11 i[6] sr_latch vdd dff_x1
X$15 vss \$11 \$12 sr_shift vdd dff_x1
X$16 vss \$12 i[7] sr_latch vdd dff_x1
X$17 vss \$12 sr_out sr_shift vdd dff_x1
X$18 vss sr_out i[8] sr_latch vdd dff_x1
.ENDS SP6TTimingIn_9SL

.SUBCKT SP6TTimingIn_9SF vss sr_shift sr_in vdd sr_out sr_latch i[8] i[7] i[6]
+ i[5] i[4] i[3] i[2] i[1] i[0]
X$1 vss sr_in \$5 sr_shift vdd dff_x1
X$2 vss \$5 i[8] sr_latch vdd dff_x1
X$3 vss \$5 \$6 sr_shift vdd dff_x1
X$4 vss \$6 i[7] sr_latch vdd dff_x1
X$5 vss \$6 \$7 sr_shift vdd dff_x1
X$6 vss \$7 i[6] sr_latch vdd dff_x1
X$7 vss \$7 \$8 sr_shift vdd dff_x1
X$8 vss \$8 i[5] sr_latch vdd dff_x1
X$9 vss \$8 \$9 sr_shift vdd dff_x1
X$10 vss \$9 i[4] sr_latch vdd dff_x1
X$11 vss \$9 \$10 sr_shift vdd dff_x1
X$12 vss \$10 i[3] sr_latch vdd dff_x1
X$13 vss \$10 \$11 sr_shift vdd dff_x1
X$14 vss \$11 i[2] sr_latch vdd dff_x1
X$15 vss \$11 \$12 sr_shift vdd dff_x1
X$16 vss \$12 i[1] sr_latch vdd dff_x1
X$17 vss \$12 sr_out sr_shift vdd dff_x1
X$18 vss sr_out i[0] sr_latch vdd dff_x1
.ENDS SP6TTimingIn_9SF

.SUBCKT SP6TBlock_512x32_342A4WE vss clk d[0] q[0] d[1] q[1] d[2] q[2] d[3]
+ q[3] d[4] q[4] d[5] q[5] d[6] q[6] d[7] q[7] we[0] d[8] q[8] d[9] q[9] d[10]
+ q[10] d[11] q[11] d[12] q[12] d[13] q[13] d[14] q[14] d[15] q[15] we[1] d[16]
+ q[16] d[17] q[17] d[18] q[18] d[19] q[19] d[20] q[20] d[21] q[21] d[22] q[22]
+ d[23] q[23] we[2] d[24] q[24] d[25] q[25] d[26] q[26] d[27] q[27] d[28] q[28]
+ d[29] q[29] d[30] q[30] d[31] q[31] we[3] a[0] a[1] vdd a[8] a[7] a[6] a[5]
+ a[2] a[3] a[4]
X$1 vss clk \$71 \$72 vdd \$75 a[0] \$81 \$82 a[1] \$83 \$80 a[2] \$121 \$123
+ \$124 \$127 a[3] \$134 \$133 \$132 \$136 \$138 \$130 \$120 \$128 a[4] \$129
+ \$102 \$103 \$107 \$106 \$105 \$114 \$109 \$116 \$113 \$117 \$118 \$112 \$111
+ a[5] \$162 \$167 \$165 \$164 \$163 \$119 a[6] \$169 \$141 \$140 \$149 \$175
+ \$170 \$168 a[7] \$146 \$151 \$150 \$148 \$145 \$144 \$143 \$156 \$158 \$157
+ \$154 \$152 a[8] \$173 \$155 \$161 \$153 \$139 \$174 \$137 \$159 \$115 \$160
+ \$166 \$171 \$172 \$142 \$147 \$104 \$126 \$131 \$135 \$110 \$108 \$101 \$213
+ \$214 \$215 \$216 \$125 \$122 \$222 \$210 \$211 \$206 \$207 \$208 \$209 \$205
+ \$220 \$218 \$221 \$223 \$212 \$217 \$227 \$229 \$194 \$226 \$225 \$224 \$219
+ \$189 \$190 \$191 \$192 \$231 \$230 \$187 \$185 \$193 \$184 \$186 \$188 \$200
+ \$197 \$196 \$195 \$198 \$199 \$228 \$234 \$201 \$235 \$202 \$203 \$236 \$204
+ \$232 \$233 SP6TRowPeriphery_3_4_2
X$2 vss d[0] q[0] d[1] q[1] d[2] q[2] d[3] q[3] d[4] q[4] d[5] q[5] d[6] q[6]
+ d[7] q[7] we[0] d[8] q[8] d[9] q[9] d[10] q[10] d[11] q[11] d[12] q[12] d[13]
+ q[13] d[14] q[14] d[15] q[15] we[1] d[16] q[16] d[17] q[17] d[18] q[18] d[19]
+ q[19] \$71 \$72 d[20] q[20] d[21] q[21] d[22] q[22] d[23] q[23] we[2] d[24]
+ q[24] d[25] q[25] d[26] q[26] d[27] q[27] d[28] q[28] d[29] q[29] d[30] q[30]
+ d[31] q[31] we[3] vdd \$81 \$82 \$83 \$80 \$75 \$106 \$139 \$118 \$117 \$116
+ \$114 \$113 \$112 \$150 \$111 \$152 \$109 \$151 \$107 \$169 \$146 \$145 \$144
+ \$143 \$141 \$140 \$149 \$175 \$170 \$119 \$168 \$167 \$165 \$164 \$163 \$148
+ \$162 \$156 \$133 \$158 \$137 \$132 \$121 \$130 \$161 \$120 \$128 \$174 \$123
+ \$127 \$159 \$124 \$173 \$134 \$155 \$157 \$136 \$138 \$129 \$153 \$102 \$103
+ \$105 \$154 \$210 \$213 \$209 \$206 \$198 \$197 \$208 \$196 \$195 \$207 \$185
+ \$219 \$226 \$224 \$223 \$221 \$227 \$220 \$194 \$205 \$229 \$218 \$230 \$231
+ \$193 \$217 \$192 \$191 \$190 \$212 \$189 \$188 \$199 \$211 \$187 \$186 \$184
+ \$225 \$215 \$147 \$142 \$172 \$171 \$166 \$160 \$115 \$101 \$104 \$214 \$216
+ \$222 \$122 \$125 \$131 \$108 \$110 \$126 \$135 \$234 \$228 \$200 \$201 \$202
+ \$203 \$232 \$204 \$236 \$233 \$235 SP6TColumnBlock_128R32B4M4W
.ENDS SP6TBlock_512x32_342A4WE

.SUBCKT mux2_x1 vdd vss cmd i0 i1 q
M$1 \$1 cmd vss vss sg13_lv_nmos L=0.13u W=0.78u AS=0.2652p AD=0.1482p PS=2.24u
+ PD=1.16u
M$2 vss i0 \$9 vss sg13_lv_nmos L=0.13u W=0.78u AS=0.1482p AD=0.1482p PS=1.16u
+ PD=1.16u
M$3 \$9 \$1 \$6 vss sg13_lv_nmos L=0.13u W=0.78u AS=0.1482p AD=0.195p PS=1.16u
+ PD=1.28u
M$4 \$6 cmd \$10 vss sg13_lv_nmos L=0.13u W=0.78u AS=0.195p AD=0.1482p PS=1.28u
+ PD=1.16u
M$5 \$10 i1 vss vss sg13_lv_nmos L=0.13u W=0.78u AS=0.1482p AD=0.2092p PS=1.16u
+ PD=1.48u
M$6 vss \$6 q vss sg13_lv_nmos L=0.13u W=1.07u AS=0.2092p AD=0.3638p PS=1.48u
+ PD=2.82u
M$7 \$1 cmd vdd vdd sg13_lv_pmos L=0.13u W=0.78u AS=0.2652p AD=0.1482p PS=2.24u
+ PD=1.16u
M$8 vdd i0 \$11 vdd sg13_lv_pmos L=0.13u W=0.78u AS=0.1482p AD=0.1482p PS=1.16u
+ PD=1.16u
M$9 \$11 cmd \$6 vdd sg13_lv_pmos L=0.13u W=0.78u AS=0.1482p AD=0.195p PS=1.16u
+ PD=1.28u
M$10 \$6 \$1 \$12 vdd sg13_lv_pmos L=0.13u W=0.78u AS=0.195p AD=0.1482p
+ PS=1.28u PD=1.16u
M$11 vdd i1 \$12 vdd sg13_lv_pmos L=0.13u W=0.78u AS=0.2075p AD=0.1482p
+ PS=1.47u PD=1.16u
M$12 vdd \$6 q vdd sg13_lv_pmos L=0.13u W=1.06u AS=0.2075p AD=0.3604p PS=1.47u
+ PD=2.8u
.ENDS mux2_x1

.SUBCKT SP6TColumnBlock_128R32B4M4W vss d[0] q[0] d[1] q[1] d[2] q[2] d[3] q[3]
+ d[4] q[4] d[5] q[5] d[6] q[6] d[7] q[7] we[0] d[8] q[8] d[9] q[9] d[10] q[10]
+ d[11] q[11] d[12] q[12] d[13] q[13] d[14] q[14] d[15] q[15] we[1] d[16] q[16]
+ d[17] q[17] d[18] q[18] d[19] q[19] clk we_en d[20] q[20] d[21] q[21] d[22]
+ q[22] d[23] q[23] we[2] d[24] q[24] d[25] q[25] d[26] q[26] d[27] q[27] d[28]
+ q[28] d[29] q[29] d[30] q[30] d[31] q[31] we[3] vdd mux[0] mux[1] mux[2]
+ mux[3] precharge_n wl[16] wl[58] wl[25] wl[24] wl[23] wl[22] wl[21] wl[20]
+ wl[44] wl[19] wl[46] wl[18] wl[45] wl[17] wl[33] wl[42] wl[41] wl[40] wl[39]
+ wl[38] wl[37] wl[36] wl[35] wl[34] wl[26] wl[32] wl[31] wl[30] wl[29] wl[28]
+ wl[43] wl[27] wl[50] wl[8] wl[49] wl[53] wl[7] wl[0] wl[6] wl[54] wl[5] wl[4]
+ wl[51] wl[1] wl[3] wl[52] wl[2] wl[55] wl[9] wl[56] wl[48] wl[10] wl[11]
+ wl[12] wl[57] wl[13] wl[14] wl[15] wl[47] wl[80] wl[79] wl[81] wl[84] wl[115]
+ wl[114] wl[82] wl[113] wl[112] wl[83] wl[111] wl[101] wl[95] wl[93] wl[92]
+ wl[91] wl[96] wl[90] wl[97] wl[89] wl[98] wl[88] wl[99] wl[100] wl[110]
+ wl[87] wl[102] wl[103] wl[104] wl[86] wl[105] wl[106] wl[116] wl[85] wl[107]
+ wl[108] wl[109] wl[94] wl[77] wl[59] wl[60] wl[61] wl[62] wl[63] wl[64]
+ wl[65] wl[66] wl[68] wl[78] wl[76] wl[75] wl[74] wl[73] wl[71] wl[67] wl[69]
+ wl[72] wl[70] wl[125] wl[117] wl[118] wl[119] wl[120] wl[121] wl[127] wl[122]
+ wl[123] wl[126] wl[124]
X$1 vss d[8] q[8] d[9] q[9] d[10] q[10] d[11] q[11] d[12] q[12] d[13] q[13]
+ d[14] q[14] d[15] q[15] we[1] clk we_en mux[0] vdd wl[2] wl[5] wl[7] wl[8]
+ wl[3] wl[1] wl[10] wl[4] wl[6] wl[14] wl[9] wl[11] wl[13] wl[0] wl[12] wl[37]
+ wl[36] wl[35] wl[34] wl[33] wl[32] wl[31] wl[30] wl[29] wl[28] wl[27] wl[26]
+ wl[25] wl[23] wl[15] precharge_n mux[3] wl[16] mux[2] mux[1] wl[17] wl[18]
+ wl[19] wl[20] wl[21] wl[22] wl[24] wl[45] wl[46] wl[47] wl[38] wl[48] wl[49]
+ wl[50] wl[51] wl[52] wl[53] wl[43] wl[42] wl[41] wl[40] wl[39] wl[44] wl[66]
+ wl[65] wl[64] wl[63] wl[54] wl[62] wl[61] wl[60] wl[68] wl[69] wl[55] wl[56]
+ wl[59] wl[57] wl[58] wl[67] wl[84] wl[85] wl[76] wl[77] wl[78] wl[80] wl[79]
+ wl[83] wl[82] wl[81] wl[74] wl[73] wl[72] wl[71] wl[70] wl[75] wl[101] wl[93]
+ wl[94] wl[97] wl[95] wl[100] wl[99] wl[98] wl[96] wl[91] wl[90] wl[89] wl[88]
+ wl[87] wl[86] wl[92] wl[117] wl[109] wl[110] wl[113] wl[111] wl[116] wl[115]
+ wl[114] wl[112] wl[107] wl[106] wl[105] wl[104] wl[103] wl[102] wl[108]
+ wl[126] wl[127] wl[125] wl[124] wl[123] wl[122] wl[121] wl[120] wl[118]
+ wl[119] SP6TColumn_128R8B4M
X$2 vss d[0] q[0] d[1] q[1] d[2] q[2] d[3] q[3] d[4] q[4] d[5] q[5] d[6] q[6]
+ d[7] q[7] we[0] clk we_en mux[0] vdd wl[2] wl[5] wl[7] wl[8] wl[3] wl[1]
+ wl[10] wl[4] wl[6] wl[14] wl[9] wl[11] wl[13] wl[0] wl[12] wl[37] wl[36]
+ wl[35] wl[34] wl[33] wl[32] wl[31] wl[30] wl[29] wl[28] wl[27] wl[26] wl[25]
+ wl[23] wl[15] precharge_n mux[3] wl[16] mux[2] mux[1] wl[17] wl[18] wl[19]
+ wl[20] wl[21] wl[22] wl[24] wl[45] wl[46] wl[47] wl[38] wl[48] wl[49] wl[50]
+ wl[51] wl[52] wl[53] wl[43] wl[42] wl[41] wl[40] wl[39] wl[44] wl[66] wl[65]
+ wl[64] wl[63] wl[54] wl[62] wl[61] wl[60] wl[68] wl[69] wl[55] wl[56] wl[59]
+ wl[57] wl[58] wl[67] wl[84] wl[85] wl[76] wl[77] wl[78] wl[80] wl[79] wl[83]
+ wl[82] wl[81] wl[74] wl[73] wl[72] wl[71] wl[70] wl[75] wl[101] wl[93] wl[94]
+ wl[97] wl[95] wl[100] wl[99] wl[98] wl[96] wl[91] wl[90] wl[89] wl[88] wl[87]
+ wl[86] wl[92] wl[117] wl[109] wl[110] wl[113] wl[111] wl[116] wl[115] wl[114]
+ wl[112] wl[107] wl[106] wl[105] wl[104] wl[103] wl[102] wl[108] wl[126]
+ wl[127] wl[125] wl[124] wl[123] wl[122] wl[121] wl[120] wl[118] wl[119]
+ SP6TColumn_128R8B4M
X$3 vss d[16] q[16] d[17] q[17] d[18] q[18] d[19] q[19] d[20] q[20] d[21] q[21]
+ d[22] q[22] d[23] q[23] we[2] clk we_en mux[0] vdd wl[2] wl[5] wl[7] wl[8]
+ wl[3] wl[1] wl[10] wl[4] wl[6] wl[14] wl[9] wl[11] wl[13] wl[0] wl[12] wl[37]
+ wl[36] wl[35] wl[34] wl[33] wl[32] wl[31] wl[30] wl[29] wl[28] wl[27] wl[26]
+ wl[25] wl[23] wl[15] precharge_n mux[3] wl[16] mux[2] mux[1] wl[17] wl[18]
+ wl[19] wl[20] wl[21] wl[22] wl[24] wl[45] wl[46] wl[47] wl[38] wl[48] wl[49]
+ wl[50] wl[51] wl[52] wl[53] wl[43] wl[42] wl[41] wl[40] wl[39] wl[44] wl[66]
+ wl[65] wl[64] wl[63] wl[54] wl[62] wl[61] wl[60] wl[68] wl[69] wl[55] wl[56]
+ wl[59] wl[57] wl[58] wl[67] wl[84] wl[85] wl[76] wl[77] wl[78] wl[80] wl[79]
+ wl[83] wl[82] wl[81] wl[74] wl[73] wl[72] wl[71] wl[70] wl[75] wl[101] wl[93]
+ wl[94] wl[97] wl[95] wl[100] wl[99] wl[98] wl[96] wl[91] wl[90] wl[89] wl[88]
+ wl[87] wl[86] wl[92] wl[117] wl[109] wl[110] wl[113] wl[111] wl[116] wl[115]
+ wl[114] wl[112] wl[107] wl[106] wl[105] wl[104] wl[103] wl[102] wl[108]
+ wl[126] wl[127] wl[125] wl[124] wl[123] wl[122] wl[121] wl[120] wl[118]
+ wl[119] SP6TColumn_128R8B4M
X$4 vss d[24] q[24] d[25] q[25] d[26] q[26] d[27] q[27] d[28] q[28] d[29] q[29]
+ d[30] q[30] d[31] q[31] we[3] clk we_en mux[0] vdd wl[2] wl[5] wl[7] wl[8]
+ wl[3] wl[1] wl[10] wl[4] wl[6] wl[14] wl[9] wl[11] wl[13] wl[0] wl[12] wl[37]
+ wl[36] wl[35] wl[34] wl[33] wl[32] wl[31] wl[30] wl[29] wl[28] wl[27] wl[26]
+ wl[25] wl[23] wl[15] precharge_n mux[3] wl[16] mux[2] mux[1] wl[17] wl[18]
+ wl[19] wl[20] wl[21] wl[22] wl[24] wl[45] wl[46] wl[47] wl[38] wl[48] wl[49]
+ wl[50] wl[51] wl[52] wl[53] wl[43] wl[42] wl[41] wl[40] wl[39] wl[44] wl[66]
+ wl[65] wl[64] wl[63] wl[54] wl[62] wl[61] wl[60] wl[68] wl[69] wl[55] wl[56]
+ wl[59] wl[57] wl[58] wl[67] wl[84] wl[85] wl[76] wl[77] wl[78] wl[80] wl[79]
+ wl[83] wl[82] wl[81] wl[74] wl[73] wl[72] wl[71] wl[70] wl[75] wl[101] wl[93]
+ wl[94] wl[97] wl[95] wl[100] wl[99] wl[98] wl[96] wl[91] wl[90] wl[89] wl[88]
+ wl[87] wl[86] wl[92] wl[117] wl[109] wl[110] wl[113] wl[111] wl[116] wl[115]
+ wl[114] wl[112] wl[107] wl[106] wl[105] wl[104] wl[103] wl[102] wl[108]
+ wl[126] wl[127] wl[125] wl[124] wl[123] wl[122] wl[121] wl[120] wl[118]
+ wl[119] SP6TColumn_128R8B4M
.ENDS SP6TColumnBlock_128R32B4M4W

.SUBCKT SP6TRowPeriphery_3_4_2 vss clk columnclk we_en vdd precharge_n a[0]
+ mux[0] mux[1] a[1] mux[2] mux[3] a[2] wl[0] wl[1] wl[2] wl[3] a[3] wl[9]
+ wl[8] wl[7] wl[10] wl[11] wl[6] wl[5] wl[4] a[4] wl[12] wl[13] wl[14] wl[17]
+ wl[16] wl[15] wl[22] wl[18] wl[23] wl[21] wl[24] wl[25] wl[20] wl[19] a[5]
+ wl[27] wl[31] wl[30] wl[29] wl[28] wl[26] a[6] wl[33] wl[38] wl[37] wl[36]
+ wl[35] wl[34] wl[32] a[7] wl[42] wl[45] wl[44] wl[43] wl[41] wl[40] wl[39]
+ wl[50] wl[49] wl[48] wl[47] wl[46] a[8] wl[55] wl[56] wl[54] wl[57] wl[58]
+ wl[51] wl[53] wl[52] wl[65] wl[64] wl[63] wl[62] wl[61] wl[60] wl[59] wl[68]
+ wl[72] wl[71] wl[70] wl[69] wl[67] wl[66] wl[79] wl[78] wl[77] wl[76] wl[73]
+ wl[74] wl[75] wl[80] wl[85] wl[84] wl[83] wl[82] wl[81] wl[89] wl[90] wl[88]
+ wl[91] wl[92] wl[86] wl[87] wl[96] wl[98] wl[97] wl[95] wl[94] wl[93] wl[101]
+ wl[105] wl[104] wl[103] wl[102] wl[100] wl[99] wl[107] wl[111] wl[110]
+ wl[109] wl[108] wl[106] wl[118] wl[114] wl[113] wl[112] wl[115] wl[116]
+ wl[117] wl[125] wl[119] wl[124] wl[120] wl[121] wl[123] wl[122] wl[127]
+ wl[126]
X$1 vss vdd clk \$7 wl_en precharge_n columnclk we_en SP6TClockGenerator_8S1R
X$2 vss vdd a[2] wl[0] wl[1] wl[2] wl[3] wl[4] wl[5] wl[6] wl[7] wl[8] a[3]
+ wl[10] wl[9] wl[12] wl[13] wl[11] wl[14] wl[15] a[4] wl[17] wl[16] wl[18]
+ wl[19] wl[21] wl[22] wl[20] wl[24] wl[23] a[5] \$7 wl[27] wl[26] wl[25]
+ wl[29] wl[28] wl[30] wl[32] wl[31] a[6] wl[34] wl[33] wl[35] wl[37] wl[36]
+ wl[38] wl[40] wl[39] a[7] wl[42] wl[41] wl[43] wl[45] wl[44] wl[47] wl[46]
+ wl[48] wl[49] a[8] wl[51] wl[50] wl[52] wl[53] wl[55] wl[54] wl[56] wl[57]
+ wl_en wl[59] wl[60] wl[58] wl[61] wl[63] wl[62] wl[65] wl[66] wl[64] wl[67]
+ wl[68] wl[69] wl[70] wl[71] wl[74] wl[73] wl[72] wl[75] wl[77] wl[76] wl[79]
+ wl[78] wl[80] wl[81] wl[84] wl[83] wl[82] wl[85] wl[87] wl[86] wl[88] wl[90]
+ wl[91] wl[89] wl[93] wl[92] wl[95] wl[94] wl[96] wl[97] wl[100] wl[98] wl[99]
+ wl[101] wl[103] wl[102] wl[106] wl[104] wl[107] wl[105] wl[109] wl[108]
+ wl[111] wl[110] wl[112] wl[113] wl[115] wl[116] wl[114] wl[117] wl[118]
+ wl[119] wl[122] wl[121] wl[120] wl[123] wl[124] wl[125] wl[127] wl[126]
+ SP6TRowDecoder_3_4B
X$3 vss vdd a[0] a[1] mux[0] mux[1] mux[2] mux[3] \$7 SP6TLatchedDecoder_2A2R
.ENDS SP6TRowPeriphery_3_4_2

.SUBCKT SP6TColumn_128R8B4M vss d[0] q[0] d[1] q[1] d[2] q[2] d[3] q[3] d[4]
+ q[4] d[5] q[5] d[6] q[6] d[7] q[7] we clk we_en mux[0] vdd wl[2] wl[5] wl[7]
+ wl[8] wl[3] wl[1] wl[10] wl[4] wl[6] wl[14] wl[9] wl[11] wl[13] wl[0] wl[12]
+ wl[37] wl[36] wl[35] wl[34] wl[33] wl[32] wl[31] wl[30] wl[29] wl[28] wl[27]
+ wl[26] wl[25] wl[23] wl[15] precharge_n mux[3] wl[16] mux[2] mux[1] wl[17]
+ wl[18] wl[19] wl[20] wl[21] wl[22] wl[24] wl[45] wl[46] wl[47] wl[38] wl[48]
+ wl[49] wl[50] wl[51] wl[52] wl[53] wl[43] wl[42] wl[41] wl[40] wl[39] wl[44]
+ wl[66] wl[65] wl[64] wl[63] wl[54] wl[62] wl[61] wl[60] wl[68] wl[69] wl[55]
+ wl[56] wl[59] wl[57] wl[58] wl[67] wl[84] wl[85] wl[76] wl[77] wl[78] wl[80]
+ wl[79] wl[83] wl[82] wl[81] wl[74] wl[73] wl[72] wl[71] wl[70] wl[75] wl[101]
+ wl[93] wl[94] wl[97] wl[95] wl[100] wl[99] wl[98] wl[96] wl[91] wl[90] wl[89]
+ wl[88] wl[87] wl[86] wl[92] wl[117] wl[109] wl[110] wl[113] wl[111] wl[116]
+ wl[115] wl[114] wl[112] wl[107] wl[106] wl[105] wl[104] wl[103] wl[102]
+ wl[108] wl[126] wl[127] wl[125] wl[124] wl[123] wl[122] wl[121] wl[120]
+ wl[118] wl[119]
X$1 vss we d[0] d[1] vdd d[2] d[3] d[4] d[5] d[6] clk d[7] we_en q[0] q[1] q[2]
+ q[3] q[4] q[5] q[6] q[7] bl[0] bl_n[0] bl_n[1] bl[1] bl[2] bl_n[2] bl_n[3]
+ bl[3] bl[4] bl_n[4] bl_n[5] bl[5] bl[6] bl_n[6] bl_n[7] bl[7] bl[8] bl_n[8]
+ bl_n[9] bl[9] bl[10] bl_n[10] bl_n[11] bl[11] bl[12] bl_n[12] bl_n[13] bl[13]
+ bl[14] bl_n[14] bl_n[15] bl[15] mux[0] bl[16] bl_n[16] bl_n[17] bl[17] bl[18]
+ bl_n[18] bl_n[19] bl[19] bl[20] bl_n[20] bl_n[21] bl[21] bl[22] bl_n[22]
+ bl_n[23] bl[23] bl[24] bl_n[24] bl_n[25] bl[25] bl[26] bl_n[26] bl_n[27]
+ bl[27] bl[28] bl_n[28] bl_n[29] bl[29] bl[30] bl_n[30] bl_n[31] bl[31] mux[3]
+ mux[1] precharge_n mux[2] vdd SP6TColumnPeriphery_8B4M
X$2 vss wl[17] wl[39] wl[41] wl[40] wl[16] wl[38] vdd wl[42] wl[15] wl[10]
+ wl[23] wl[28] wl[30] wl[27] wl[31] wl[26] wl[25] wl[24] wl[32] wl[18] wl[33]
+ wl[22] wl[34] wl[35] wl[21] wl[36] wl[20] wl[37] wl[19] wl[29] wl[13] wl[14]
+ wl[0] wl[1] wl[2] wl[3] wl[4] wl[5] wl[6] wl[7] wl[8] wl[9] wl[11] wl[12]
+ bl[0] bl_n[0] bl_n[1] bl[1] bl[2] bl_n[2] bl_n[3] bl[3] bl[4] bl_n[4] bl_n[5]
+ bl[5] bl[6] bl_n[6] bl_n[7] bl[7] bl[8] bl_n[8] bl_n[9] bl[9] bl[10] bl_n[10]
+ bl_n[11] bl[11] bl[12] bl_n[12] bl_n[13] bl[13] bl[14] bl_n[14] bl_n[15]
+ bl[15] wl[51] wl[58] wl[43] wl[57] wl[44] wl[56] wl[59] wl[55] wl[54] wl[45]
+ wl[53] wl[60] wl[52] wl[61] wl[50] wl[49] wl[62] wl[48] wl[63] wl[46] wl[47]
+ bl[16] bl_n[16] bl_n[17] bl[17] bl[18] bl_n[18] bl_n[19] bl[19] bl[20]
+ bl_n[20] bl_n[21] bl[21] bl[22] bl_n[22] bl_n[23] bl[23] bl[24] bl_n[24]
+ bl_n[25] bl[25] bl[26] bl_n[26] bl_n[27] bl[27] bl[28] bl_n[28] bl_n[29]
+ bl[29] bl[30] bl_n[30] bl_n[31] bl[31] wl[122] wl[121] wl[88] wl[107] wl[108]
+ wl[87] wl[109] wl[120] wl[110] wl[86] wl[111] wl[106] wl[85] wl[119] wl[112]
+ wl[113] wl[84] wl[118] wl[114] wl[115] wl[83] wl[117] wl[116] wl[100] wl[96]
+ wl[95] wl[94] wl[127] wl[97] wl[93] wl[98] wl[126] wl[99] wl[92] wl[125]
+ wl[101] wl[91] wl[102] wl[124] wl[103] wl[90] wl[104] wl[123] wl[105] wl[89]
+ wl[81] wl[82] wl[64] wl[65] wl[66] wl[67] wl[68] wl[69] wl[70] wl[71] wl[72]
+ wl[73] wl[74] wl[75] wl[76] wl[77] wl[78] wl[79] wl[80] SP6TArray_128X32BC
.ENDS SP6TColumn_128R8B4M

.SUBCKT SP6TClockGenerator_8S1R vss vdd clk decodeclk wl_en precharge_n
+ columnclk we_en
X$1 vdd vss \$7 wl_en buf_x1
X$2 vdd vss clk decodeclk buf_x1
X$3 vss vdd precharge_n \$10 inv_x1
X$4 vdd vss clk columnclk buf_x1
X$5 vss vdd \$7 \$10 clk SP6TNonOverlapClock_8S1R
X$6 vdd vss \$7 we_en buf_x1
.ENDS SP6TClockGenerator_8S1R

.SUBCKT SP6TLatchedDecoder_2A2R vss vdd a[0] a[1] line[0] line[1] line[2]
+ line[3] clk
X$1 vss a[0] \$11 clk vdd SP6TDec_dff_x1
X$2 vss a[1] \$12 clk vdd SP6TDec_dff_x1
X$3 vss vdd \$13 \$11 SP6TDec_inv_x1
X$4 vss vdd \$13 \$16 \$14 SP6TDec_nand2_x0
X$5 vss vdd line[0] \$16 SP6TDec_inv_x2
X$6 vss vdd \$11 \$17 \$14 SP6TDec_nand2_x0
X$7 vss vdd line[1] \$17 SP6TDec_inv_x2
X$8 vss vdd \$13 \$18 \$12 SP6TDec_nand2_x0
X$9 vss vdd \$14 \$12 SP6TDec_inv_x1
X$10 vss vdd line[2] \$18 SP6TDec_inv_x2
X$11 vss vdd \$11 \$19 \$12 SP6TDec_nand2_x0
X$12 vss vdd line[3] \$19 SP6TDec_inv_x2
.ENDS SP6TLatchedDecoder_2A2R

.SUBCKT SP6TRowDecoder_3_4B vss vdd a[0] wl[0] wl[1] wl[2] wl[3] wl[4] wl[5]
+ wl[6] wl[7] wl[8] a[1] wl[10] wl[9] wl[12] wl[13] wl[11] wl[14] wl[15] a[2]
+ wl[17] wl[16] wl[18] wl[19] wl[21] wl[22] wl[20] wl[24] wl[23] a[3] clk
+ wl[27] wl[26] wl[25] wl[29] wl[28] wl[30] wl[32] wl[31] a[4] wl[34] wl[33]
+ wl[35] wl[37] wl[36] wl[38] wl[40] wl[39] a[5] wl[42] wl[41] wl[43] wl[45]
+ wl[44] wl[47] wl[46] wl[48] wl[49] a[6] wl[51] wl[50] wl[52] wl[53] wl[55]
+ wl[54] wl[56] wl[57] wl_en wl[59] wl[60] wl[58] wl[61] wl[63] wl[62] wl[65]
+ wl[66] wl[64] wl[67] wl[68] wl[69] wl[70] wl[71] wl[74] wl[73] wl[72] wl[75]
+ wl[77] wl[76] wl[79] wl[78] wl[80] wl[81] wl[84] wl[83] wl[82] wl[85] wl[87]
+ wl[86] wl[88] wl[90] wl[91] wl[89] wl[93] wl[92] wl[95] wl[94] wl[96] wl[97]
+ wl[100] wl[98] wl[99] wl[101] wl[103] wl[102] wl[106] wl[104] wl[107] wl[105]
+ wl[109] wl[108] wl[111] wl[110] wl[112] wl[113] wl[115] wl[116] wl[114]
+ wl[117] wl[118] wl[119] wl[122] wl[121] wl[120] wl[123] wl[124] wl[125]
+ wl[127] wl[126]
X$1 vss vdd \$6 \$13 \$2 \$9 \$27 \$10 \$16 \$40 \$12 \$49 \$20 \$17 \$61 \$72
+ \$87 \$100 \$111 \$115 \$128 \$135 \$148 \$159 \$171 \$182 clk a[0] a[1] a[2]
+ a[3] a[4] a[5] a[6] SP6TRowPredecoders_3_4B
X$3 vss \$2 \$6 wl[0] wl[1] vdd \$10 \$9 wl[2] wl_en wl[3] \$12 \$16 wl[4]
+ wl[5] \$17 \$20 wl[6] \$13 wl[7] SP6TRowDecoderDriverPage_2PD8R
X$4 vss \$2 \$6 wl[8] wl[9] vdd \$10 \$9 wl[10] wl_en wl[11] \$12 \$16 wl[12]
+ wl[13] \$17 \$20 wl[14] \$27 wl[15] SP6TRowDecoderDriverPage_2PD8R
X$6 vss \$2 \$6 wl[16] wl[17] vdd \$10 \$9 wl[18] wl_en wl[19] \$12 \$16 wl[20]
+ wl[21] \$17 \$20 wl[22] \$40 wl[23] SP6TRowDecoderDriverPage_2PD8R
X$7 vss \$2 \$6 wl[24] wl[25] vdd \$10 \$9 wl[26] wl_en wl[27] \$12 \$16 wl[28]
+ wl[29] \$17 \$20 wl[30] \$49 wl[31] SP6TRowDecoderDriverPage_2PD8R
X$9 vss \$2 \$6 wl[32] wl[33] vdd \$10 \$9 wl[34] wl_en wl[35] \$12 \$16 wl[36]
+ wl[37] \$17 \$20 wl[38] \$61 wl[39] SP6TRowDecoderDriverPage_2PD8R
X$10 vss \$2 \$6 wl[40] wl[41] vdd \$10 \$9 wl[42] wl_en wl[43] \$12 \$16
+ wl[44] wl[45] \$17 \$20 wl[46] \$72 wl[47] SP6TRowDecoderDriverPage_2PD8R
X$12 vss \$2 \$6 wl[48] wl[49] vdd \$10 \$9 wl[50] wl_en wl[51] \$12 \$16
+ wl[52] wl[53] \$17 \$20 wl[54] \$87 wl[55] SP6TRowDecoderDriverPage_2PD8R
X$13 vss \$2 \$6 wl[56] wl[57] vdd \$10 \$9 wl[58] wl_en wl[59] \$12 \$16
+ wl[60] wl[61] \$17 \$20 wl[62] \$100 wl[63] SP6TRowDecoderDriverPage_2PD8R
X$15 vss \$2 \$6 wl[64] wl[65] vdd \$10 \$9 wl[66] wl_en wl[67] \$12 \$16
+ wl[68] wl[69] \$17 \$20 wl[70] \$111 wl[71] SP6TRowDecoderDriverPage_2PD8R
X$16 vss \$2 \$6 wl[72] wl[73] vdd \$10 \$9 wl[74] wl_en wl[75] \$12 \$16
+ wl[76] wl[77] \$17 \$20 wl[78] \$115 wl[79] SP6TRowDecoderDriverPage_2PD8R
X$18 vss \$2 \$6 wl[80] wl[81] vdd \$10 \$9 wl[82] wl_en wl[83] \$12 \$16
+ wl[84] wl[85] \$17 \$20 wl[86] \$128 wl[87] SP6TRowDecoderDriverPage_2PD8R
X$19 vss \$2 \$6 wl[88] wl[89] vdd \$10 \$9 wl[90] wl_en wl[91] \$12 \$16
+ wl[92] wl[93] \$17 \$20 wl[94] \$135 wl[95] SP6TRowDecoderDriverPage_2PD8R
X$21 vss \$2 \$6 wl[96] wl[97] vdd \$10 \$9 wl[98] wl_en wl[99] \$12 \$16
+ wl[100] wl[101] \$17 \$20 wl[102] \$148 wl[103] SP6TRowDecoderDriverPage_2PD8R
X$22 vss \$2 \$6 wl[104] wl[105] vdd \$10 \$9 wl[106] wl_en wl[107] \$12 \$16
+ wl[108] wl[109] \$17 \$20 wl[110] \$159 wl[111] SP6TRowDecoderDriverPage_2PD8R
X$24 vss \$2 \$6 wl[112] wl[113] vdd \$10 \$9 wl[114] wl_en wl[115] \$12 \$16
+ wl[116] wl[117] \$17 \$20 wl[118] \$171 wl[119] SP6TRowDecoderDriverPage_2PD8R
X$25 vss \$2 \$6 wl[120] wl[121] vdd \$10 \$9 wl[122] wl_en wl[123] \$12 \$16
+ wl[124] wl[125] \$17 \$20 wl[126] \$182 wl[127] SP6TRowDecoderDriverPage_2PD8R
.ENDS SP6TRowDecoder_3_4B

.SUBCKT SP6TArray_128X32BC vss wl[17] wl[39] wl[41] wl[40] wl[16] wl[38] vdd
+ wl[42] wl[15] wl[10] wl[23] wl[28] wl[30] wl[27] wl[31] wl[26] wl[25] wl[24]
+ wl[32] wl[18] wl[33] wl[22] wl[34] wl[35] wl[21] wl[36] wl[20] wl[37] wl[19]
+ wl[29] wl[13] wl[14] wl[0] wl[1] wl[2] wl[3] wl[4] wl[5] wl[6] wl[7] wl[8]
+ wl[9] wl[11] wl[12] bl[0] bl_n[0] bl_n[1] bl[1] bl[2] bl_n[2] bl_n[3] bl[3]
+ bl[4] bl_n[4] bl_n[5] bl[5] bl[6] bl_n[6] bl_n[7] bl[7] bl[8] bl_n[8] bl_n[9]
+ bl[9] bl[10] bl_n[10] bl_n[11] bl[11] bl[12] bl_n[12] bl_n[13] bl[13] bl[14]
+ bl_n[14] bl_n[15] bl[15] wl[51] wl[58] wl[43] wl[57] wl[44] wl[56] wl[59]
+ wl[55] wl[54] wl[45] wl[53] wl[60] wl[52] wl[61] wl[50] wl[49] wl[62] wl[48]
+ wl[63] wl[46] wl[47] bl[16] bl_n[16] bl_n[17] bl[17] bl[18] bl_n[18] bl_n[19]
+ bl[19] bl[20] bl_n[20] bl_n[21] bl[21] bl[22] bl_n[22] bl_n[23] bl[23] bl[24]
+ bl_n[24] bl_n[25] bl[25] bl[26] bl_n[26] bl_n[27] bl[27] bl[28] bl_n[28]
+ bl_n[29] bl[29] bl[30] bl_n[30] bl_n[31] bl[31] wl[122] wl[121] wl[88]
+ wl[107] wl[108] wl[87] wl[109] wl[120] wl[110] wl[86] wl[111] wl[106] wl[85]
+ wl[119] wl[112] wl[113] wl[84] wl[118] wl[114] wl[115] wl[83] wl[117] wl[116]
+ wl[100] wl[96] wl[95] wl[94] wl[127] wl[97] wl[93] wl[98] wl[126] wl[99]
+ wl[92] wl[125] wl[101] wl[91] wl[102] wl[124] wl[103] wl[90] wl[104] wl[123]
+ wl[105] wl[89] wl[81] wl[82] wl[64] wl[65] wl[66] wl[67] wl[68] wl[69] wl[70]
+ wl[71] wl[72] wl[73] wl[74] wl[75] wl[76] wl[77] wl[78] wl[79] wl[80]
X$2 vss bl[0] bl_n[0] bl_n[1] bl[1] bl[2] bl_n[2] bl_n[3] bl[3] bl[4] bl_n[4]
+ bl_n[5] bl[5] bl[6] bl_n[6] bl_n[7] bl[7] bl[8] bl_n[8] bl_n[9] bl[9] bl[10]
+ bl_n[10] bl_n[11] bl[11] bl[12] bl_n[12] bl_n[13] bl[13] bl[14] bl_n[14]
+ bl_n[15] bl[15] wl[16] wl[17] wl[21] wl[20] wl[19] wl[18] wl[22] wl[23]
+ wl[24] wl[25] wl[26] wl[27] wl[28] wl[29] wl[30] wl[31] vdd wl[0] wl[1] wl[2]
+ wl[3] wl[4] wl[5] wl[6] wl[7] wl[8] wl[9] wl[10] wl[11] wl[12] wl[15] wl[14]
+ wl[13] bl[16] bl_n[16] bl_n[17] bl[17] bl[18] bl_n[18] bl_n[19] bl[19] bl[20]
+ bl_n[20] bl_n[21] bl[21] bl[22] bl_n[22] bl_n[23] bl[23] bl[24] bl_n[24]
+ bl_n[25] bl[25] bl[26] bl_n[26] bl_n[27] bl[27] bl[28] bl_n[28] bl_n[29]
+ bl[29] bl[30] bl_n[30] bl_n[31] bl[31] wl[50] wl[32] wl[51] wl[52] wl[53]
+ wl[54] wl[55] wl[56] wl[57] wl[58] wl[59] wl[60] wl[61] wl[62] wl[47] wl[41]
+ wl[43] wl[40] wl[44] wl[39] wl[45] wl[38] wl[46] wl[37] wl[42] wl[36] wl[35]
+ wl[34] wl[48] wl[33] wl[49] wl[63] SP6TArray_64X32
X$4 vss bl[0] bl_n[0] bl_n[1] bl[1] bl[2] bl_n[2] bl_n[3] bl[3] bl[4] bl_n[4]
+ bl_n[5] bl[5] bl[6] bl_n[6] bl_n[7] bl[7] bl[8] bl_n[8] bl_n[9] bl[9] bl[10]
+ bl_n[10] bl_n[11] bl[11] bl[12] bl_n[12] bl_n[13] bl[13] bl[14] bl_n[14]
+ bl_n[15] bl[15] wl[80] wl[81] wl[85] wl[84] wl[83] wl[82] wl[86] wl[87]
+ wl[88] wl[89] wl[90] wl[91] wl[92] wl[93] wl[94] wl[95] vdd wl[64] wl[65]
+ wl[66] wl[67] wl[68] wl[69] wl[70] wl[71] wl[72] wl[73] wl[74] wl[75] wl[76]
+ wl[79] wl[78] wl[77] bl[16] bl_n[16] bl_n[17] bl[17] bl[18] bl_n[18] bl_n[19]
+ bl[19] bl[20] bl_n[20] bl_n[21] bl[21] bl[22] bl_n[22] bl_n[23] bl[23] bl[24]
+ bl_n[24] bl_n[25] bl[25] bl[26] bl_n[26] bl_n[27] bl[27] bl[28] bl_n[28]
+ bl_n[29] bl[29] bl[30] bl_n[30] bl_n[31] bl[31] wl[114] wl[96] wl[115]
+ wl[116] wl[117] wl[118] wl[119] wl[120] wl[121] wl[122] wl[123] wl[124]
+ wl[125] wl[126] wl[111] wl[105] wl[107] wl[104] wl[108] wl[103] wl[109]
+ wl[102] wl[110] wl[101] wl[106] wl[100] wl[99] wl[98] wl[112] wl[97] wl[113]
+ wl[127] SP6TArray_64X32
.ENDS SP6TArray_128X32BC

.SUBCKT SP6TColumnPeriphery_8B4M vss we d[0] d[1] vdd d[2] d[3] d[4] d[5] d[6]
+ clk d[7] we_en q[0] q[1] q[2] q[3] q[4] q[5] q[6] q[7] bl[0] bl_n[0] bl_n[1]
+ bl[1] bl[2] bl_n[2] bl_n[3] bl[3] bl[4] bl_n[4] bl_n[5] bl[5] bl[6] bl_n[6]
+ bl_n[7] bl[7] bl[8] bl_n[8] bl_n[9] bl[9] bl[10] bl_n[10] bl_n[11] bl[11]
+ bl[12] bl_n[12] bl_n[13] bl[13] bl[14] bl_n[14] bl_n[15] bl[15] mux[0] bl[16]
+ bl_n[16] bl_n[17] bl[17] bl[18] bl_n[18] bl_n[19] bl[19] bl[20] bl_n[20]
+ bl_n[21] bl[21] bl[22] bl_n[22] bl_n[23] bl[23] bl[24] bl_n[24] bl_n[25]
+ bl[25] bl[26] bl_n[26] bl_n[27] bl[27] bl[28] bl_n[28] bl_n[29] bl[29] bl[30]
+ bl_n[30] bl_n[31] bl[31] mux[3] mux[1] precharge_n mux[2] \$I302
X$1 \$103 bl[4] bl_n[4] \$100 bl_n[5] bl[5] bl[6] bl_n[6] bl_n[7] bl[7] mux[0]
+ vss mux[1] mux[2] mux[3] SP6TColMux_4C
X$2 \$93 bl[0] bl_n[0] \$95 bl_n[1] bl[1] bl[2] bl_n[2] bl_n[3] bl[3] mux[0]
+ vss mux[1] mux[2] mux[3] SP6TColMux_4C
X$3 precharge_n vdd bl[0] bl_n[0] \$I302 SP6TPrecharge
X$4 precharge_n vdd bl[1] bl_n[1] \$I302 SP6TPrecharge
X$5 precharge_n vdd bl[2] bl_n[2] \$I302 SP6TPrecharge
X$6 precharge_n vdd bl[3] bl_n[3] \$I302 SP6TPrecharge
X$7 precharge_n vdd bl[4] bl_n[4] \$I302 SP6TPrecharge
X$8 \$107 bl[8] bl_n[8] \$106 bl_n[9] bl[9] bl[10] bl_n[10] bl_n[11] bl[11]
+ mux[0] vss mux[1] mux[2] mux[3] SP6TColMux_4C