* Extracted by KLayout with SG13G2 LVS runset on : 24/10/2025 17:10

.SUBCKT DP01 vss vdd_block vdd_periph in_srout1 out_srout1 out_srin in_srin
+ clk2 out_latch2 out_latch1 clk1 out_shift1 out_l2s in_shift1 out_srout2
+ in_shift2 in_srout2 in_latch2 in_latch1 out_shift2
X$2 vss vdd_periph out_l2s out_shift1 out_srout1 out_srin clk1 out_latch1
+ in_latch1 in_shift1 in_srin in_srout1 vdd_block in_latch2 in_srout2 clk2
+ in_srin in_shift2 out_latch2 out_srout2 out_shift2 out_l2s out_srin
+ DP8TBlock_512x32_342A4WE_Test
.ENDS DP01

.SUBCKT DP8TBlock_512x32_342A4WE_Test vss vdd_periph out_l2s1 out_shift1
+ out_srout1 out_srin1 clk1 out_latch1 in_latch1 in_shift1 in_srin1 in_srout1
+ vdd_block in_latch2 in_srout2 clk2 in_srin2 in_shift2 out_latch2 out_srout2
+ out_shift2 out_l2s2 out_srin2
X$1 vss clk1 \$65 \$16 \$66 \$17 \$67 \$18 \$68 \$19 \$69 \$20 \$70 \$21 \$71
+ \$22 \$72 \$23 \$73 \$74 \$24 \$75 \$25 \$76 \$26 \$77 \$27 \$78 \$28 \$79
+ \$29 \$100 \$30 \$80 \$31 \$81 \$82 \$32 \$83 \$33 \$84 \$34 \$85 \$35 \$86
+ \$36 \$87 \$37 \$88 \$38 \$89 \$39 \$90 \$91 \$40 \$92 \$41 \$93 \$42 \$94
+ \$43 \$95 \$44 \$96 \$45 \$97 \$46 \$98 \$47 \$99 \$64 \$63 vdd_block \$61
+ \$62 \$58 \$60 \$59 \$57 \$56 \$151 \$103 \$102 \$104 \$150 \$149 \$105 \$106
+ \$148 \$132 \$153 \$154 \$155 \$156 \$176 \$177 \$178 \$136 \$158 \$159 \$160
+ \$161 \$179 \$180 \$181 \$141 \$163 \$164 \$165 \$166 \$183 \$184 \$185 \$145
+ \$168 \$169 \$170 \$171 \$186 \$187 \$188 \$131 \$133 \$107 \$108 \$109 \$110
+ \$111 \$112 \$134 \$135 \$137 \$113 \$114 \$115 \$116 \$117 \$118 \$138 \$140
+ \$142 \$119 \$120 \$121 \$122 \$123 \$124 \$143 \$144 \$146 \$125 \$126 \$127
+ \$128 \$129 \$130 \$147 clk2 DP8TBlock_512x32_342A4WE
X$2 vss vdd_periph out_shift2 out_l2s2 in_latch2 out_latch2 clk2 out_srin2
+ \$196 DP8TTimingOut_2SL
X$5 vss in_shift1 \$48 vdd_periph \$49 in_latch1 \$65 \$66 \$67 \$68 \$69 \$70
+ \$71 \$72 \$73 DP8TTimingIn_9SL
X$6 vss out_shift1 out_l2s1 \$5 vdd_periph \$4 out_latch1 \$16 \$17 \$18 \$19
+ \$20 \$21 \$22 \$23 DP8TTimingOut_8SL
X$7 vss in_shift2 \$173 vdd_periph \$167 in_latch2 \$147 \$130 \$129 \$128
+ \$127 \$126 \$125 \$146 \$144 DP8TTimingIn_9SL
X$8 vss out_shift2 out_l2s2 \$195 vdd_periph \$196 out_latch2 \$188 \$187 \$186
+ \$171 \$170 \$169 \$168 \$145 DP8TTimingOut_8SL
X$9 vss in_shift2 \$157 vdd_periph in_srout2 in_latch2 \$134 \$112 \$111 \$110
+ \$109 \$108 \$107 \$133 \$131 DP8TTimingIn_9SL
X$10 vss out_shift2 out_l2s2 out_srout2 vdd_periph \$191 out_latch2 \$178 \$177
+ \$176 \$156 \$155 \$154 \$153 \$132 DP8TTimingOut_8SL
X$11 vss in_shift2 \$167 vdd_periph \$162 in_latch2 \$143 \$124 \$123 \$122
+ \$121 \$120 \$119 \$142 \$140 DP8TTimingIn_9SL
X$12 vss out_shift2 out_l2s2 \$192 vdd_periph \$195 out_latch2 \$185 \$184
+ \$183 \$166 \$165 \$164 \$163 \$141 DP8TTimingOut_8SL
X$13 vss in_shift2 \$162 vdd_periph \$157 in_latch2 \$138 \$118 \$117 \$116
+ \$115 \$114 \$113 \$137 \$135 DP8TTimingIn_9SL
X$14 vss out_shift2 out_l2s2 \$191 vdd_periph \$192 out_latch2 \$181 \$180
+ \$179 \$161 \$160 \$159 \$158 \$136 DP8TTimingOut_8SL
X$15 vss in_shift1 \$49 vdd_periph \$50 in_latch1 \$74 \$75 \$76 \$77 \$78 \$79
+ \$100 \$80 \$81 DP8TTimingIn_9SL
X$16 vss out_shift1 out_l2s1 \$8 vdd_periph \$5 out_latch1 \$24 \$25 \$26 \$27
+ \$28 \$29 \$30 \$31 DP8TTimingOut_8SL
X$17 vss in_shift1 \$50 vdd_periph \$52 in_latch1 \$82 \$83 \$84 \$85 \$86 \$87
+ \$88 \$89 \$90 DP8TTimingIn_9SL
X$18 vss out_shift1 out_l2s1 \$9 vdd_periph \$8 out_latch1 \$32 \$33 \$34 \$35
+ \$36 \$37 \$38 \$39 DP8TTimingOut_8SL
X$19 vss in_shift1 \$52 vdd_periph in_srout1 in_latch1 \$91 \$92 \$93 \$94 \$95
+ \$96 \$97 \$98 \$99 DP8TTimingIn_9SL
X$20 vss out_shift1 out_l2s1 out_srout1 vdd_periph \$9 out_latch1 \$40 \$41
+ \$42 \$43 \$44 \$45 \$46 \$47 DP8TTimingOut_8SL
X$21 vss in_shift1 in_srin1 vdd_periph \$48 in_latch1 \$56 \$57 \$58 \$59 \$60
+ \$61 \$62 \$63 \$64 DP8TTimingIn_9SF
X$25 vss vdd_periph out_shift1 out_l2s1 in_latch1 out_latch1 clk1 out_srin1 \$4
+ DP8TTimingOut_2SL
X$27 vss in_shift2 in_srin2 vdd_periph \$173 in_latch2 \$151 \$103 \$102 \$150
+ \$149 \$105 \$104 \$106 \$148 DP8TTimingIn_9SF
.ENDS DP8TBlock_512x32_342A4WE_Test

.SUBCKT DP8TTimingOut_2SL vss vdd sr_shift l2s o[0] o[1] sr_latch sr_in sr_out
X$1 vss \$12 \$11 sr_shift vdd dff_x1
X$2 vss o[0] \$13 sr_latch vdd dff_x1
X$3 vdd vss l2s sr_in \$13 \$12 mux2_x1
X$4 vdd vss l2s \$11 \$16 \$15 mux2_x1
X$5 vss \$15 sr_out sr_shift vdd dff_x1
X$6 vss o[1] \$16 sr_latch vdd dff_x1
.ENDS DP8TTimingOut_2SL

.SUBCKT DP8TTimingOut_8SL vss sr_shift l2s sr_out vdd sr_in sr_latch o[0] o[1]
+ o[2] o[3] o[4] o[5] o[6] o[7]
X$1 vss \$9 \$10 sr_shift vdd dff_x1
X$2 vss o[0] \$25 sr_latch vdd dff_x1
X$3 vdd vss l2s sr_in \$25 \$9 mux2_x1
X$4 vdd vss l2s \$10 \$5 \$11 mux2_x1
X$5 vss \$11 \$12 sr_shift vdd dff_x1
X$6 vss o[1] \$5 sr_latch vdd dff_x1
X$7 vss \$13 \$14 sr_shift vdd dff_x1
X$8 vss o[2] \$26 sr_latch vdd dff_x1
X$9 vdd vss l2s \$12 \$26 \$13 mux2_x1
X$10 vdd vss l2s \$14 \$6 \$15 mux2_x1
X$11 vss \$15 \$16 sr_shift vdd dff_x1
X$12 vss o[3] \$6 sr_latch vdd dff_x1
X$13 vss \$17 \$18 sr_shift vdd dff_x1
X$14 vss o[4] \$28 sr_latch vdd dff_x1
X$15 vdd vss l2s \$16 \$28 \$17 mux2_x1
X$16 vdd vss l2s \$18 \$7 \$19 mux2_x1
X$17 vss \$19 \$20 sr_shift vdd dff_x1
X$18 vss o[5] \$7 sr_latch vdd dff_x1
X$19 vss \$21 \$22 sr_shift vdd dff_x1
X$20 vss o[6] \$29 sr_latch vdd dff_x1
X$21 vdd vss l2s \$20 \$29 \$21 mux2_x1
X$22 vdd vss l2s \$22 \$8 \$23 mux2_x1
X$23 vss \$23 sr_out sr_shift vdd dff_x1
X$24 vss o[7] \$8 sr_latch vdd dff_x1
.ENDS DP8TTimingOut_8SL

.SUBCKT DP8TTimingIn_9SL vss sr_shift sr_in vdd sr_out sr_latch i[0] i[1] i[2]
+ i[3] i[4] i[5] i[6] i[7] i[8]
X$1 vss sr_in \$5 sr_shift vdd dff_x1
X$2 vss \$5 i[0] sr_latch vdd dff_x1
X$3 vss \$5 \$6 sr_shift vdd dff_x1
X$4 vss \$6 i[1] sr_latch vdd dff_x1
X$5 vss \$6 \$7 sr_shift vdd dff_x1
X$6 vss \$7 i[2] sr_latch vdd dff_x1
X$7 vss \$7 \$8 sr_shift vdd dff_x1
X$8 vss \$8 i[3] sr_latch vdd dff_x1
X$9 vss \$8 \$9 sr_shift vdd dff_x1
X$10 vss \$9 i[4] sr_latch vdd dff_x1
X$11 vss \$9 \$10 sr_shift vdd dff_x1
X$12 vss \$10 i[5] sr_latch vdd dff_x1
X$13 vss \$10 \$11 sr_shift vdd dff_x1
X$14 vss \$11 i[6] sr_latch vdd dff_x1
X$15 vss \$11 \$12 sr_shift vdd dff_x1
X$16 vss \$12 i[7] sr_latch vdd dff_x1
X$17 vss \$12 sr_out sr_shift vdd dff_x1
X$18 vss sr_out i[8] sr_latch vdd dff_x1
.ENDS DP8TTimingIn_9SL

.SUBCKT DP8TTimingIn_9SF vss sr_shift sr_in vdd sr_out sr_latch i[8] i[7] i[6]
+ i[5] i[4] i[3] i[2] i[1] i[0]
X$1 vss sr_in \$5 sr_shift vdd dff_x1
X$2 vss \$5 i[8] sr_latch vdd dff_x1
X$3 vss \$5 \$6 sr_shift vdd dff_x1
X$4 vss \$6 i[7] sr_latch vdd dff_x1
X$5 vss \$6 \$7 sr_shift vdd dff_x1
X$6 vss \$7 i[6] sr_latch vdd dff_x1
X$7 vss \$7 \$8 sr_shift vdd dff_x1
X$8 vss \$8 i[5] sr_latch vdd dff_x1
X$9 vss \$8 \$9 sr_shift vdd dff_x1
X$10 vss \$9 i[4] sr_latch vdd dff_x1
X$11 vss \$9 \$10 sr_shift vdd dff_x1
X$12 vss \$10 i[3] sr_latch vdd dff_x1
X$13 vss \$10 \$11 sr_shift vdd dff_x1
X$14 vss \$11 i[2] sr_latch vdd dff_x1
X$15 vss \$11 \$12 sr_shift vdd dff_x1
X$16 vss \$12 i[1] sr_latch vdd dff_x1
X$17 vss \$12 sr_out sr_shift vdd dff_x1
X$18 vss sr_out i[0] sr_latch vdd dff_x1
.ENDS DP8TTimingIn_9SF

.SUBCKT DP8TBlock_512x32_342A4WE vss clk1 d1[0] q1[0] d1[1] q1[1] d1[2] q1[2]
+ d1[3] q1[3] d1[4] q1[4] d1[5] q1[5] d1[6] q1[6] d1[7] q1[7] we1[0] d1[8]
+ q1[8] d1[9] q1[9] d1[10] q1[10] d1[11] q1[11] d1[12] q1[12] d1[13] q1[13]
+ d1[14] q1[14] d1[15] q1[15] we1[1] d1[16] q1[16] d1[17] q1[17] d1[18] q1[18]
+ d1[19] q1[19] d1[20] q1[20] d1[21] q1[21] d1[22] q1[22] d1[23] q1[23] we1[2]
+ d1[24] q1[24] d1[25] q1[25] d1[26] q1[26] d1[27] q1[27] d1[28] q1[28] d1[29]
+ q1[29] d1[30] q1[30] d1[31] q1[31] we1[3] a1[0] a1[1] vdd a1[3] a1[2] a1[6]
+ a1[4] a1[5] a1[7] a1[8] a2[8] a2[7] a2[6] a2[2] a2[5] a2[4] a2[3] a2[1] a2[0]
+ q2[0] q2[1] q2[2] q2[3] q2[4] q2[5] q2[6] q2[7] q2[8] q2[9] q2[10] q2[11]
+ q2[12] q2[13] q2[14] q2[15] q2[16] q2[17] q2[18] q2[19] q2[20] q2[21] q2[22]
+ q2[23] q2[24] q2[25] q2[26] q2[27] q2[28] q2[29] q2[30] q2[31] we2[0] d2[0]
+ d2[1] d2[2] d2[3] d2[4] d2[5] d2[6] d2[7] we2[1] d2[8] d2[9] d2[10] d2[11]
+ d2[12] d2[13] d2[14] d2[15] we2[2] d2[16] d2[17] d2[18] d2[19] d2[20] d2[21]
+ d2[22] d2[23] we2[3] d2[24] d2[25] d2[26] d2[27] d2[28] d2[29] d2[30] d2[31]
+ clk2
X$1 vss clk1 \$71 \$72 vdd \$75 a1[0] \$81 \$82 a1[1] \$80 \$83 a1[2] \$114
+ \$113 \$115 \$109 \$108 \$112 \$111 \$107 \$110 a1[3] \$104 \$103 \$97 \$95
+ \$105 \$106 a1[4] \$100 \$99 \$102 \$98 \$101 \$96 \$127 \$136 \$133 \$131
+ a1[5] \$130 \$124 \$121 \$123 \$125 \$126 \$128 \$132 \$134 a1[6] \$118 \$122
+ \$135 \$137 \$129 a1[7] \$200 \$116 \$120 \$119 \$117 \$202 \$204 \$208 \$207
+ \$206 a1[8] \$199 \$198 \$197 \$196 \$203 \$205 \$224 \$210 \$191 \$192 \$193
+ \$194 \$225 \$226 \$227 \$223 \$229 \$222 \$228 \$233 \$232 \$230 \$209 \$220
+ \$219 \$218 \$217 \$216 \$215 \$214 \$213 \$221 \$212 \$231 \$195 \$190 \$211
+ \$201 \$322 \$327 \$299 \$304 \$309 \$294 \$332 \$315 \$316 \$295 \$296 \$297
+ \$313 \$312 \$311 \$305 \$306 \$307 \$308 \$310 \$292 \$298 \$300 \$301 \$302
+ \$293 \$331 \$314 \$303 \$326 \$330 \$325 \$324 \$328 \$329 \$323 \$321 \$320
+ \$319 \$318 \$317 DP8TRowPeriphery_3_4_2_wl1
X$2 vss d1[0] q1[0] d1[1] q1[1] d1[2] q1[2] d1[3] q1[3] d1[4] q1[4] d1[5] q1[5]
+ d1[6] q1[6] d1[7] q1[7] we1[0] d1[8] q1[8] d1[9] q1[9] d1[10] q1[10] d1[11]
+ q1[11] d1[12] q1[12] d1[13] q1[13] d1[14] q1[14] d1[15] q1[15] we1[1] d1[16]
+ q1[16] d1[17] q1[17] d1[18] q1[18] d1[19] q1[19] \$71 \$72 d1[20] q1[20]
+ d1[21] q1[21] d1[22] q1[22] d1[23] q1[23] we1[2] d1[24] q1[24] d1[25] q1[25]
+ d1[26] q1[26] d1[27] q1[27] d1[28] q1[28] d1[29] q1[29] d1[30] q1[30] d1[31]
+ q1[31] we1[3] vdd \$81 \$82 \$80 \$75 \$83 \$152 \$101 \$143 \$153 \$100 \$99
+ \$157 \$155 \$102 \$98 \$96 \$95 \$97 \$149 \$148 \$103 \$104 \$147 \$142
+ \$105 \$156 \$126 \$125 \$144 \$145 \$123 \$121 \$159 \$151 \$124 \$130 \$154
+ \$158 \$131 \$133 \$150 \$146 \$136 \$127 \$139 \$165 \$177 \$170 \$171 \$109
+ \$110 \$172 \$111 \$112 \$176 \$173 \$113 \$114 \$179 \$166 \$115 \$108 \$106
+ \$169 \$107 \$140 \$258 \$262 \$207 \$206 \$257 \$256 \$205 \$203 \$260 \$208
+ \$204 \$198 \$202 \$200 \$263 \$275 \$116 \$120 \$160 \$193 \$238 \$237 \$224
+ \$210 \$236 \$248 \$191 \$192 \$234 \$249 \$255 \$194 \$250 \$251 \$196 \$197
+ \$252 \$253 \$261 \$199 \$254 \$167 \$164 \$132 \$178 \$122 \$129 \$118 \$137
+ \$174 \$163 \$161 \$168 \$141 \$128 \$117 \$135 \$162 \$138 \$175 \$119 \$134
+ \$220 \$274 \$240 \$218 \$190 \$219 \$235 \$271 \$268 \$278 \$195 \$217 \$265
+ \$209 \$201 \$276 \$247 \$259 \$222 \$277 \$213 \$267 \$269 \$214 \$212 \$215
+ \$270 \$211 \$273 \$221 \$216 \$272 \$349 \$231 \$266 \$227 \$229 \$243 \$242
+ \$299 \$223 \$304 \$345 \$344 \$241 \$239 \$336 \$226 \$225 \$309 \$294 \$232
+ \$228 \$264 \$246 \$322 \$233 \$327 \$245 \$244 \$339 \$230 \$308 \$373 \$366
+ \$305 \$331 \$306 \$375 \$330 \$357 \$307 \$374 \$302 \$376 \$365 \$310 \$329
+ \$311 \$362 \$328 \$298 \$370 \$314 \$303 \$369 \$368 \$293 \$358 \$367 \$364
+ \$300 \$301 \$360 \$359 \$371 \$292 \$296 \$332 \$361 \$325 \$315 \$337 \$295
+ \$324 \$363 \$352 \$355 \$338 \$334 \$316 \$297 \$356 \$312 \$333 \$313 \$348
+ \$377 \$346 \$347 \$335 \$372 \$323 \$326 q2[0] q2[1] q2[2] q2[3] q2[4] q2[5]
+ q2[6] q2[7] q2[8] q2[9] q2[10] q2[11] q2[12] q2[13] q2[14] q2[15] \$319 \$353
+ \$354 \$320 \$340 \$341 \$342 \$343 \$286 \$317 \$351 \$321 \$350 \$318
+ q2[16] q2[17] q2[18] q2[19] q2[20] q2[21] q2[22] q2[23] q2[24] q2[25] q2[26]
+ q2[27] q2[28] q2[29] q2[30] q2[31] we2[0] d2[0] d2[1] d2[2] d2[3] d2[4] d2[5]
+ d2[6] d2[7] we2[1] d2[8] d2[9] d2[10] d2[11] \$452 \$453 d2[12] d2[13] d2[14]
+ d2[15] we2[2] d2[16] d2[17] d2[18] d2[19] d2[20] d2[21] d2[22] d2[23] we2[3]
+ d2[24] d2[25] d2[26] d2[27] d2[28] d2[29] d2[30] d2[31]
+ DP8TColumnBlock_128R32B4M4W
X$3 vss clk2 \$453 \$452 vdd \$286 a2[0] \$340 \$341 a2[1] \$342 \$343 a2[2]
+ \$351 \$353 \$350 \$354 \$356 \$348 \$334 \$338 \$335 a2[3] \$373 \$374 \$370
+ \$369 \$376 \$333 a2[4] \$360 \$364 \$367 \$368 \$359 \$358 \$366 \$375 \$357
+ \$371 a2[5] \$365 \$362 \$363 \$377 \$372 \$352 \$355 \$361 \$337 a2[6] \$345
+ \$344 \$347 \$346 \$336 a2[7] \$240 \$235 \$259 \$349 \$339 \$265 \$268 \$272
+ \$270 \$267 a2[8] \$273 \$266 \$274 \$271 \$277 \$269 \$245 \$246 \$264 \$247
+ \$276 \$278 \$244 \$243 \$242 \$241 \$239 \$234 \$248 \$236 \$237 \$238 \$249
+ \$250 \$251 \$252 \$253 \$254 \$255 \$256 \$257 \$262 \$258 \$263 \$275 \$261
+ \$260 \$160 \$161 \$162 \$163 \$164 \$178 \$167 \$168 \$175 \$174 \$138 \$141
+ \$144 \$145 \$159 \$151 \$139 \$146 \$150 \$158 \$156 \$165 \$155 \$157 \$153
+ \$143 \$154 \$148 \$149 \$152 \$169 \$147 \$170 \$171 \$140 \$142 \$172 \$173
+ \$176 \$177 \$179 \$166 DP8TRowPeriphery_3_4_2_wl2
.ENDS DP8TBlock_512x32_342A4WE

.SUBCKT mux2_x1 vdd vss cmd i0 i1 q
M$1 \$1 cmd vss vss sg13_lv_nmos L=0.13u W=0.78u AS=0.2652p AD=0.1482p PS=2.24u
+ PD=1.16u
M$2 vss i0 \$9 vss sg13_lv_nmos L=0.13u W=0.78u AS=0.1482p AD=0.1482p PS=1.16u
+ PD=1.16u
M$3 \$9 \$1 \$6 vss sg13_lv_nmos L=0.13u W=0.78u AS=0.1482p AD=0.195p PS=1.16u
+ PD=1.28u
M$4 \$6 cmd \$10 vss sg13_lv_nmos L=0.13u W=0.78u AS=0.195p AD=0.1482p PS=1.28u
+ PD=1.16u
M$5 \$10 i1 vss vss sg13_lv_nmos L=0.13u W=0.78u AS=0.1482p AD=0.2092p PS=1.16u
+ PD=1.48u
M$6 vss \$6 q vss sg13_lv_nmos L=0.13u W=1.07u AS=0.2092p AD=0.3638p PS=1.48u
+ PD=2.82u
M$7 \$1 cmd vdd vdd sg13_lv_pmos L=0.13u W=0.78u AS=0.2652p AD=0.1482p PS=2.24u
+ PD=1.16u
M$8 vdd i0 \$11 vdd sg13_lv_pmos L=0.13u W=0.78u AS=0.1482p AD=0.1482p PS=1.16u
+ PD=1.16u
M$9 \$11 cmd \$6 vdd sg13_lv_pmos L=0.13u W=0.78u AS=0.1482p AD=0.195p PS=1.16u
+ PD=1.28u
M$10 \$6 \$1 \$12 vdd sg13_lv_pmos L=0.13u W=0.78u AS=0.195p AD=0.1482p
+ PS=1.28u PD=1.16u
M$11 vdd i1 \$12 vdd sg13_lv_pmos L=0.13u W=0.78u AS=0.2075p AD=0.1482p
+ PS=1.47u PD=1.16u
M$12 vdd \$6 q vdd sg13_lv_pmos L=0.13u W=1.06u AS=0.2075p AD=0.3604p PS=1.47u
+ PD=2.8u
.ENDS mux2_x1

.SUBCKT DP8TRowPeriphery_3_4_2_wl2 vss clk columnclk we_en vdd precharge_n a[0]
+ mux[0] mux[1] a[1] mux[2] mux[3] a[2] wl[126] wl[125] wl[127] wl[124] wl[123]
+ wl[122] wl[121] wl[120] wl[119] a[3] wl[115] wl[116] wl[114] wl[113] wl[117]
+ wl[118] a[4] wl[109] wl[110] wl[111] wl[112] wl[108] wl[107] wl[106] wl[105]
+ wl[104] wl[103] a[5] wl[102] wl[101] wl[100] wl[99] wl[98] wl[94] wl[95]
+ wl[97] wl[96] a[6] wl[89] wl[90] wl[93] wl[92] wl[91] a[7] wl[84] wl[85]
+ wl[86] wl[87] wl[88] wl[83] wl[82] wl[81] wl[80] wl[79] a[8] wl[76] wl[75]
+ wl[74] wl[73] wl[77] wl[78] wl[67] wl[68] wl[69] wl[70] wl[71] wl[72] wl[66]
+ wl[65] wl[64] wl[63] wl[62] wl[57] wl[58] wl[59] wl[60] wl[61] wl[56] wl[55]
+ wl[54] wl[53] wl[52] wl[51] wl[50] wl[49] wl[48] wl[44] wl[47] wl[43] wl[42]
+ wl[45] wl[46] wl[41] wl[40] wl[39] wl[38] wl[37] wl[36] wl[35] wl[34] wl[33]
+ wl[32] wl[31] wl[30] wl[29] wl[28] wl[27] wl[26] wl[21] wl[22] wl[23] wl[24]
+ wl[25] wl[20] wl[16] wl[17] wl[18] wl[19] wl[15] wl[12] wl[13] wl[14] wl[8]
+ wl[11] wl[7] wl[6] wl[9] wl[10] wl[5] wl[4] wl[3] wl[2] wl[1] wl[0]
X$1 vss vdd clk \$7 wl_en precharge_n columnclk we_en DP8TClockGenerator_8S1R
X$2 vss a[2] vdd wl[126] wl[127] wl[125] wl[123] wl[122] wl[124] wl[121]
+ wl[120] wl[119] wl[118] a[3] wl[116] wl[117] wl[113] wl[114] wl[115] wl[111]
+ wl[112] a[4] wl[109] wl[110] wl[108] wl[106] wl[105] wl[107] \$7 wl[104]
+ wl[103] a[5] wl[101] wl[100] wl[102] wl[98] wl[99] wl[97] wl[96] a[6] wl[94]
+ wl[93] wl[95] wl[91] wl[92] wl[90] wl[88] wl[89] wl[87] wl[86] wl[85] a[7]
+ wl[84] wl[83] wl[82] wl[81] wl[80] wl[78] wl[77] wl[79] a[8] wl[76] wl[75]
+ wl[74] wl[73] wl[72] wl[70] wl[69] wl[71] wl_en wl[68] wl[67] wl[66] wl[64]
+ wl[65] wl[62] wl[63] wl[61] wl[60] wl[59] wl[58] wl[57] wl[56] wl[54] wl[53]
+ wl[55] wl[52] wl[51] wl[50] wl[48] wl[49] wl[46] wl[47] wl[45] wl[44] wl[43]
+ wl[42] wl[41] wl[40] wl[38] wl[37] wl[39] wl[36] wl[35] wl[34] wl[32] wl[33]
+ wl[30] wl[31] wl[29] wl[28] wl[27] wl[26] wl[24] wl[25] wl[20] wl[21] wl[22]
+ wl[23] wl[19] wl[18] wl[16] wl[17] wl[14] wl[15] wl[13] wl[12] wl[11] wl[10]
+ wl[9] wl[8] wl[7] wl[6] wl[4] wl[5] wl[2] wl[3] wl[0] wl[1]
+ DP8TRowDecoder_3_4B_wl2
X$3 vss vdd a[0] a[1] mux[0] mux[1] mux[2] mux[3] \$7 DP8TLatchedDecoder_2A2R
.ENDS DP8TRowPeriphery_3_4_2_wl2

.SUBCKT DP8TColumnBlock_128R32B4M4W vss d1[0] q1[0] d1[1] q1[1] d1[2] q1[2]
+ d1[3] q1[3] d1[4] q1[4] d1[5] q1[5] d1[6] q1[6] d1[7] q1[7] we1[0] d1[8]
+ q1[8] d1[9] q1[9] d1[10] q1[10] d1[11] q1[11] d1[12] q1[12] d1[13] q1[13]
+ d1[14] q1[14] d1[15] q1[15] we1[1] d1[16] q1[16] d1[17] q1[17] d1[18] q1[18]
+ d1[19] q1[19] clk1 we_en1 d1[20] q1[20] d1[21] q1[21] d1[22] q1[22] d1[23]
+ q1[23] we1[2] d1[24] q1[24] d1[25] q1[25] d1[26] q1[26] d1[27] q1[27] d1[28]
+ q1[28] d1[29] q1[29] d1[30] q1[30] d1[31] q1[31] we1[3] vdd mux1[0] mux1[1]
+ mux1[2] precharge1_n mux1[3] wl1[14] wl2[19] wl1[19] wl1[18] wl2[18] wl2[17]
+ wl1[17] wl1[16] wl2[16] wl2[15] wl2[20] wl2[14] wl2[13] wl1[13] wl1[12]
+ wl2[12] wl2[11] wl1[11] wl1[10] wl2[10] wl1[25] wl2[30] wl2[29] wl1[29]
+ wl1[28] wl2[28] wl2[27] wl1[27] wl1[26] wl2[26] wl2[25] wl1[15] wl1[24]
+ wl2[24] wl2[23] wl1[23] wl1[22] wl2[22] wl2[21] wl1[21] wl1[20] wl1[2] wl1[7]
+ wl1[6] wl2[6] wl2[5] wl1[5] wl2[4] wl2[3] wl1[3] wl1[4] wl2[2] wl2[1] wl1[1]
+ wl1[0] wl2[0] wl2[7] wl2[9] wl1[8] wl2[8] wl1[9] wl1[47] wl1[44] wl2[47]
+ wl2[48] wl1[48] wl1[49] wl2[49] wl2[50] wl1[46] wl2[46] wl2[45] wl2[52]
+ wl2[44] wl2[43] wl1[43] wl1[42] wl2[42] wl2[41] wl1[41] wl2[56] wl1[61]
+ wl1[60] wl2[60] wl2[59] wl1[59] wl1[58] wl2[58] wl2[57] wl1[57] wl1[56]
+ wl1[50] wl2[55] wl1[55] wl1[54] wl2[54] wl2[53] wl1[53] wl1[52] wl1[45]
+ wl2[51] wl1[51] wl1[35] wl1[37] wl2[32] wl1[36] wl2[37] wl2[36] wl2[38]
+ wl2[35] wl1[32] wl1[38] wl1[40] wl1[34] wl1[30] wl2[31] wl2[39] wl2[34]
+ wl1[39] wl1[31] wl1[33] wl2[40] wl2[33] wl2[72] wl1[74] wl1[84] wl2[74]
+ wl2[82] wl2[73] wl1[85] wl1[73] wl1[82] wl1[72] wl2[85] wl2[75] wl1[83]
+ wl2[71] wl2[86] wl1[71] wl1[70] wl1[86] wl2[70] wl1[77] wl2[79] wl1[79]
+ wl1[78] wl2[78] wl2[80] wl2[77] wl1[80] wl2[81] wl1[76] wl2[83] wl2[76]
+ wl1[81] wl1[87] wl2[84] wl1[75] wl2[63] wl2[65] wl1[65] wl1[64] wl2[89]
+ wl2[64] wl2[90] wl1[89] wl1[90] wl1[63] wl1[62] wl1[91] wl2[62] wl2[61]
+ wl2[91] wl2[92] wl2[67] wl2[69] wl1[69] wl1[68] wl2[87] wl2[68] wl2[88]
+ wl1[67] wl1[66] wl1[88] wl2[66] wl2[103] wl1[115] wl1[106] wl2[106] wl2[115]
+ wl2[105] wl1[105] wl2[116] wl1[104] wl2[104] wl1[116] wl2[108] wl1[117]
+ wl1[102] wl2[102] wl2[117] wl2[101] wl1[101] wl2[118] wl2[111] wl1[114]
+ wl2[114] wl2[113] wl1[113] wl1[112] wl2[112] wl1[107] wl1[111] wl1[110]
+ wl2[110] wl2[109] wl1[109] wl1[108] wl1[103] wl2[107] wl2[97] wl2[93] wl1[97]
+ wl2[120] wl2[94] wl1[96] wl2[96] wl2[121] wl1[100] wl1[94] wl1[95] wl1[120]
+ wl1[121] wl2[95] wl2[98] wl1[123] wl2[100] wl1[118] wl2[99] wl1[122] wl1[99]
+ wl1[92] wl1[93] wl1[119] wl1[98] wl2[122] wl2[119] q2[0] q2[1] q2[2] q2[3]
+ q2[4] q2[5] q2[6] q2[7] q2[8] q2[9] q2[10] q2[11] q2[12] q2[13] q2[14] q2[15]
+ wl2[125] wl1[125] wl1[124] wl2[124] mux2[0] mux2[1] mux2[2] mux2[3]
+ precharge2_n wl2[127] wl1[126] wl2[123] wl1[127] wl2[126] q2[16] q2[17]
+ q2[18] q2[19] q2[20] q2[21] q2[22] q2[23] q2[24] q2[25] q2[26] q2[27] q2[28]
+ q2[29] q2[30] q2[31] we2[0] d2[0] d2[1] d2[2] d2[3] d2[4] d2[5] d2[6] d2[7]
+ we2[1] d2[8] d2[9] d2[10] d2[11] we_en2 clk2 d2[12] d2[13] d2[14] d2[15]
+ we2[2] d2[16] d2[17] d2[18] d2[19] d2[20] d2[21] d2[22] d2[23] we2[3] d2[24]
+ d2[25] d2[26] d2[27] d2[28] d2[29] d2[30] d2[31]
X$1 vss d1[8] q1[8] d1[9] q1[9] d1[10] q1[10] d1[11] q1[11] d1[12] q1[12]
+ d1[13] q1[13] d1[14] q1[14] d1[15] q1[15] we1[1] clk1 we_en1 vdd mux1[0]
+ wl2[17] wl1[2] wl1[5] wl2[2] wl1[12] wl2[0] wl2[1] wl1[1] wl1[0] wl1[8]
+ wl1[18] wl2[12] wl2[18] wl2[11] wl1[19] wl1[11] wl1[10] wl2[10] wl2[9] wl1[9]
+ wl1[3] wl2[8] wl2[7] wl1[7] wl1[6] wl2[6] wl2[5] wl2[19] wl1[4] wl2[4] wl2[3]
+ wl1[17] wl2[14] wl2[13] precharge1_n mux1[3] mux1[2] mux1[1] wl1[14] wl1[13]
+ wl1[15] wl2[15] wl2[16] wl1[16] wl1[25] wl2[20] wl1[24] wl2[25] wl2[26]
+ wl2[24] wl1[26] wl1[27] wl2[27] wl2[23] wl2[28] wl1[28] wl1[22] wl2[22]
+ wl2[21] wl1[21] wl1[20] wl1[23] wl1[35] wl1[34] wl2[34] wl2[33] wl1[33]
+ wl1[32] wl1[29] wl2[32] wl2[36] wl1[36] wl2[29] wl2[30] wl2[31] wl1[30]
+ wl1[31] wl2[35] wl2[45] wl1[43] wl1[40] wl1[45] wl1[41] wl1[44] wl2[41]
+ wl2[44] wl2[42] wl2[43] wl1[42] wl2[39] wl1[39] wl1[38] wl2[38] wl2[37]
+ wl1[37] wl2[40] wl2[49] wl2[50] wl1[49] wl1[50] wl1[51] wl2[51] wl1[48]
+ wl2[52] wl2[53] wl1[52] wl2[48] wl1[53] wl2[46] wl1[46] wl2[47] wl1[47]
+ wl1[62] wl2[60] wl2[62] wl2[57] wl2[61] wl2[58] wl1[61] wl1[58] wl1[59]
+ wl1[60] wl2[59] wl1[56] wl2[56] wl2[55] wl1[55] wl1[54] wl2[54] wl1[57]
+ wl1[66] wl1[67] wl2[66] wl2[67] wl2[68] wl1[68] wl2[65] wl1[69] wl1[70]
+ wl2[69] wl1[65] wl2[70] wl2[64] wl1[63] wl2[63] wl1[64] wl2[79] wl1[77]
+ wl1[79] wl1[74] wl1[78] wl1[75] wl2[78] wl2[75] wl2[76] wl2[77] wl1[76]
+ wl2[73] wl1[73] wl1[72] wl2[72] wl2[71] wl1[71] wl2[74] wl2[83] wl2[84]
+ wl1[83] wl1[84] wl1[85] wl2[85] wl1[82] wl2[86] wl2[87] wl1[86] wl2[82]
+ wl1[87] wl1[81] wl1[80] wl2[81] wl2[80] wl1[94] wl2[91] wl2[92] wl1[92]
+ wl1[93] wl2[95] wl2[93] wl1[95] wl2[94] wl1[90] wl2[90] wl2[89] wl1[89]
+ wl1[88] wl2[88] wl1[91] wl1[100] wl1[101] wl2[100] wl2[101] wl2[102] wl1[102]
+ wl2[99] wl1[103] wl1[104] wl2[103] wl1[99] wl2[104] wl2[98] wl2[96] wl1[96]
+ wl2[97] wl1[98] wl1[97] wl1[112] wl2[111] wl1[108] wl1[109] wl2[109] wl2[112]
+ wl2[110] wl1[110] wl1[111] wl2[107] wl1[107] wl1[106] wl2[106] wl2[105]
+ wl1[105] wl2[108] wl2[117] wl2[118] wl1[117] wl1[118] wl1[119] wl2[119]
+ wl1[116] wl2[120] wl2[121] wl1[120] wl2[116] wl1[121] wl1[115] wl1[113]
+ wl2[113] wl1[114] wl2[115] wl2[114] wl1[123] wl2[123] wl1[122] wl2[122]
+ wl2[124] wl1[124] wl1[125] wl2[125] wl2[127] wl1[127] wl1[126] wl2[126]
+ we_en2 clk2 we2[1] q2[8] d2[8] q2[9] d2[9] q2[10] d2[10] q2[11] d2[11]
+ mux2[3] mux2[2] precharge2_n mux2[1] mux2[0] q2[12] d2[12] q2[13] d2[13]
+ q2[14] d2[14] q2[15] d2[15] DP8TColumn_128R8B4M
X$2 vss d1[0] q1[0] d1[1] q1[1] d1[2] q1[2] d1[3] q1[3] d1[4] q1[4] d1[5] q1[5]
+ d1[6] q1[6] d1[7] q1[7] we1[0] clk1 we_en1 vdd mux1[0] wl2[17] wl1[2] wl1[5]
+ wl2[2] wl1[12] wl2[0] wl2[1] wl1[1] wl1[0] wl1[8] wl1[18] wl2[12] wl2[18]
+ wl2[11] wl1[19] wl1[11] wl1[10] wl2[10] wl2[9] wl1[9] wl1[3] wl2[8] wl2[7]
+ wl1[7] wl1[6] wl2[6] wl2[5] wl2[19] wl1[4] wl2[4] wl2[3] wl1[17] wl2[14]
+ wl2[13] precharge1_n mux1[3] mux1[2] mux1[1] wl1[14] wl1[13] wl1[15] wl2[15]
+ wl2[16] wl1[16] wl1[25] wl2[20] wl1[24] wl2[25] wl2[26] wl2[24] wl1[26]
+ wl1[27] wl2[27] wl2[23] wl2[28] wl1[28] wl1[22] wl2[22] wl2[21] wl1[21]
+ wl1[20] wl1[23] wl1[35] wl1[34] wl2[34] wl2[33] wl1[33] wl1[32] wl1[29]
+ wl2[32] wl2[36] wl1[36] wl2[29] wl2[30] wl2[31] wl1[30] wl1[31] wl2[35]
+ wl2[45] wl1[43] wl1[40] wl1[45] wl1[41] wl1[44] wl2[41] wl2[44] wl2[42]
+ wl2[43] wl1[42] wl2[39] wl1[39] wl1[38] wl2[38] wl2[37] wl1[37] wl2[40]
+ wl2[49] wl2[50] wl1[49] wl1[50] wl1[51] wl2[51] wl1[48] wl2[52] wl2[53]
+ wl1[52] wl2[48] wl1[53] wl2[46] wl1[46] wl2[47] wl1[47] wl1[62] wl2[60]
+ wl2[62] wl2[57] wl2[61] wl2[58] wl1[61] wl1[58] wl1[59] wl1[60] wl2[59]
+ wl1[56] wl2[56] wl2[55] wl1[55] wl1[54] wl2[54] wl1[57] wl1[66] wl1[67]
+ wl2[66] wl2[67] wl2[68] wl1[68] wl2[65] wl1[69] wl1[70] wl2[69] wl1[65]
+ wl2[70] wl2[64] wl1[63] wl2[63] wl1[64] wl2[79] wl1[77] wl1[79] wl1[74]
+ wl1[78] wl1[75] wl2[78] wl2[75] wl2[76] wl2[77] wl1[76] wl2[73] wl1[73]
+ wl1[72] wl2[72] wl2[71] wl1[71] wl2[74] wl2[83] wl2[84] wl1[83] wl1[84]
+ wl1[85] wl2[85] wl1[82] wl2[86] wl2[87] wl1[86] wl2[82] wl1[87] wl1[81]
+ wl1[80] wl2[81] wl2[80] wl1[94] wl2[91] wl2[92] wl1[92] wl1[93] wl2[95]
+ wl2[93] wl1[95] wl2[94] wl1[90] wl2[90] wl2[89] wl1[89] wl1[88] wl2[88]
+ wl1[91] wl1[100] wl1[101] wl2[100] wl2[101] wl2[102] wl1[102] wl2[99]
+ wl1[103] wl1[104] wl2[103] wl1[99] wl2[104] wl2[98] wl2[96] wl1[96] wl2[97]
+ wl1[98] wl1[97] wl1[112] wl2[111] wl1[108] wl1[109] wl2[109] wl2[112]
+ wl2[110] wl1[110] wl1[111] wl2[107] wl1[107] wl1[106] wl2[106] wl2[105]
+ wl1[105] wl2[108] wl2[117] wl2[118] wl1[117] wl1[118] wl1[119] wl2[119]
+ wl1[116] wl2[120] wl2[121] wl1[120] wl2[116] wl1[121] wl1[115] wl1[113]
+ wl2[113] wl1[114] wl2[115] wl2[114] wl1[123] wl2[123] wl1[122] wl2[122]
+ wl2[124] wl1[124] wl1[125] wl2[125] wl2[127] wl1[127] wl1[126] wl2[126]
+ we_en2 clk2 we2[0] q2[0] d2[0] q2[1] d2[1] q2[2] d2[2] q2[3] d2[3] mux2[3]
+ mux2[2] precharge2_n mux2[1] mux2[0] q2[4] d2[4] q2[5] d2[5] q2[6] d2[6]
+ q2[7] d2[7] DP8TColumn_128R8B4M
X$3 vss d1[16] q1[16] d1[17] q1[17] d1[18] q1[18] d1[19] q1[19] d1[20] q1[20]
+ d1[21] q1[21] d1[22] q1[22] d1[23] q1[23] we1[2] clk1 we_en1 vdd mux1[0]
+ wl2[17] wl1[2] wl1[5] wl2[2] wl1[12] wl2[0] wl2[1] wl1[1] wl1[0] wl1[8]
+ wl1[18] wl2[12] wl2[18] wl2[11] wl1[19] wl1[11] wl1[10] wl2[10] wl2[9] wl1[9]
+ wl1[3] wl2[8] wl2[7] wl1[7] wl1[6] wl2[6] wl2[5] wl2[19] wl1[4] wl2[4] wl2[3]
+ wl1[17] wl2[14] wl2[13] precharge1_n mux1[3] mux1[2] mux1[1] wl1[14] wl1[13]
+ wl1[15] wl2[15] wl2[16] wl1[16] wl1[25] wl2[20] wl1[24] wl2[25] wl2[26]
+ wl2[24] wl1[26] wl1[27] wl2[27] wl2[23] wl2[28] wl1[28] wl1[22] wl2[22]
+ wl2[21] wl1[21] wl1[20] wl1[23] wl1[35] wl1[34] wl2[34] wl2[33] wl1[33]
+ wl1[32] wl1[29] wl2[32] wl2[36] wl1[36] wl2[29] wl2[30] wl2[31] wl1[30]
+ wl1[31] wl2[35] wl2[45] wl1[43] wl1[40] wl1[45] wl1[41] wl1[44] wl2[41]
+ wl2[44] wl2[42] wl2[43] wl1[42] wl2[39] wl1[39] wl1[38] wl2[38] wl2[37]
+ wl1[37] wl2[40] wl2[49] wl2[50] wl1[49] wl1[50] wl1[51] wl2[51] wl1[48]
+ wl2[52] wl2[53] wl1[52] wl2[48] wl1[53] wl2[46] wl1[46] wl2[47] wl1[47]
+ wl1[62] wl2[60] wl2[62] wl2[57] wl2[61] wl2[58] wl1[61] wl1[58] wl1[59]
+ wl1[60] wl2[59] wl1[56] wl2[56] wl2[55] wl1[55] wl1[54] wl2[54] wl1[57]
+ wl1[66] wl1[67] wl2[66] wl2[67] wl2[68] wl1[68] wl2[65] wl1[69] wl1[70]
+ wl2[69] wl1[65] wl2[70] wl2[64] wl1[63] wl2[63] wl1[64] wl2[79] wl1[77]
+ wl1[79] wl1[74] wl1[78] wl1[75] wl2[78] wl2[75] wl2[76] wl2[77] wl1[76]
+ wl2[73] wl1[73] wl1[72] wl2[72] wl2[71] wl1[71] wl2[74] wl2[83] wl2[84]
+ wl1[83] wl1[84] wl1[85] wl2[85] wl1[82] wl2[86] wl2[87] wl1[86] wl2[82]
+ wl1[87] wl1[81] wl1[80] wl2[81] wl2[80] wl1[94] wl2[91] wl2[92] wl1[92]
+ wl1[93] wl2[95] wl2[93] wl1[95] wl2[94] wl1[90] wl2[90] wl2[89] wl1[89]
+ wl1[88] wl2[88] wl1[91] wl1[100] wl1[101] wl2[100] wl2[101] wl2[102] wl1[102]
+ wl2[99] wl1[103] wl1[104] wl2[103] wl1[99] wl2[104] wl2[98] wl2[96] wl1[96]
+ wl2[97] wl1[98] wl1[97] wl1[112] wl2[111] wl1[108] wl1[109] wl2[109] wl2[112]
+ wl2[110] wl1[110] wl1[111] wl2[107] wl1[107] wl1[106] wl2[106] wl2[105]
+ wl1[105] wl2[108] wl2[117] wl2[118] wl1[117] wl1[118] wl1[119] wl2[119]
+ wl1[116] wl2[120] wl2[121] wl1[120] wl2[116] wl1[121] wl1[115] wl1[113]
+ wl2[113] wl1[114] wl2[115] wl2[114] wl1[123] wl2[123] wl1[122] wl2[122]
+ wl2[124] wl1[124] wl1[125] wl2[125] wl2[127] wl1[127] wl1[126] wl2[126]
+ we_en2 clk2 we2[2] q2[16] d2[16] q2[17] d2[17] q2[18] d2[18] q2[19] d2[19]
+ mux2[3] mux2[2] precharge2_n mux2[1] mux2[0] q2[20] d2[20] q2[21] d2[21]
+ q2[22] d2[22] q2[23] d2[23] DP8TColumn_128R8B4M
X$4 vss d1[24] q1[24] d1[25] q1[25] d1[26] q1[26] d1[27] q1[27] d1[28] q1[28]
+ d1[29] q1[29] d1[30] q1[30] d1[31] q1[31] we1[3] clk1 we_en1 vdd mux1[0]
+ wl2[17] wl1[2] wl1[5] wl2[2] wl1[12] wl2[0] wl2[1] wl1[1] wl1[0] wl1[8]
+ wl1[18] wl2[12] wl2[18] wl2[11] wl1[19] wl1[11] wl1[10] wl2[10] wl2[9] wl1[9]
+ wl1[3] wl2[8] wl2[7] wl1[7] wl1[6] wl2[6] wl2[5] wl2[19] wl1[4] wl2[4] wl2[3]
+ wl1[17] wl2[14] wl2[13] precharge1_n mux1[3] mux1[2] mux1[1] wl1[14] wl1[13]
+ wl1[15] wl2[15] wl2[16] wl1[16] wl1[25] wl2[20] wl1[24] wl2[25] wl2[26]
+ wl2[24] wl1[26] wl1[27] wl2[27] wl2[23] wl2[28] wl1[28] wl1[22] wl2[22]
+ wl2[21] wl1[21] wl1[20] wl1[23] wl1[35] wl1[34] wl2[34] wl2[33] wl1[33]
+ wl1[32] wl1[29] wl2[32] wl2[36] wl1[36] wl2[29] wl2[30] wl2[31] wl1[30]
+ wl1[31] wl2[35] wl2[45] wl1[43] wl1[40] wl1[45] wl1[41] wl1[44] wl2[41]
+ wl2[44] wl2[42] wl2[43] wl1[42] wl2[39] wl1[39] wl1[38] wl2[38] wl2[37]
+ wl1[37] wl2[40] wl2[49] wl2[50] wl1[49] wl1[50] wl1[51] wl2[51] wl1[48]
+ wl2[52] wl2[53] wl1[52] wl2[48] wl1[53] wl2[46] wl1[46] wl2[47] wl1[47]
+ wl1[62] wl2[60] wl2[62] wl2[57] wl2[61] wl2[58] wl1[61] wl1[58] wl1[59]
+ wl1[60] wl2[59] wl1[56] wl2[56] wl2[55] wl1[55] wl1[54] wl2[54] wl1[57]
+ wl1[66] wl1[67] wl2[66] wl2[67] wl2[68] wl1[68] wl2[65] wl1[69] wl1[70]
+ wl2[69] wl1[65] wl2[70] wl2[64] wl1[63] wl2[63] wl1[64] wl2[79] wl1[77]
+ wl1[79] wl1[74] wl1[78] wl1[75] wl2[78] wl2[75] wl2[76] wl2[77] wl1[76]
+ wl2[73] wl1[73] wl1[72] wl2[72] wl2[71] wl1[71] wl2[74] wl2[83] wl2[84]
+ wl1[83] wl1[84] wl1[85] wl2[85] wl1[82] wl2[86] wl2[87] wl1[86] wl2[82]
+ wl1[87] wl1[81] wl1[80] wl2[81] wl2[80] wl1[94] wl2[91] wl2[92] wl1[92]
+ wl1[93] wl2[95] wl2[93] wl1[95] wl2[94] wl1[90] wl2[90] wl2[89] wl1[89]
+ wl1[88] wl2[88] wl1[91] wl1[100] wl1[101] wl2[100] wl2[101] wl2[102] wl1[102]
+ wl2[99] wl1[103] wl1[104] wl2[103] wl1[99] wl2[104] wl2[98] wl2[96] wl1[96]
+ wl2[97] wl1[98] wl1[97] wl1[112] wl2[111] wl1[108] wl1[109] wl2[109] wl2[112]
+ wl2[110] wl1[110] wl1[111] wl2[107] wl1[107] wl1[106] wl2[106] wl2[105]
+ wl1[105] wl2[108] wl2[117] wl2[118] wl1[117] wl1[118] wl1[119] wl2[119]
+ wl1[116] wl2[120] wl2[121] wl1[120] wl2[116] wl1[121] wl1[115] wl1[113]
+ wl2[113] wl1[114] wl2[115] wl2[114] wl1[123] wl2[123] wl1[122] wl2[122]
+ wl2[124] wl1[124] wl1[125] wl2[125] wl2[127] wl1[127] wl1[126] wl2[126]
+ we_en2 clk2 we2[3] q2[24] d2[24] q2[25] d2[25] q2[26] d2[26] q2[27] d2[27]
+ mux2[3] mux2[2] precharge2_n mux2[1] mux2[0] q2[28] d2[28] q2[29] d2[29]
+ q2[30] d2[30] q2[31] d2[31] DP8TColumn_128R8B4M
.ENDS DP8TColumnBlock_128R32B4M4W

.SUBCKT DP8TRowPeriphery_3_4_2_wl1 vss clk columnclk we_en vdd precharge_n a[0]
+ mux[0] mux[1] a[1] mux[2] mux[3] a[2] wl[1] wl[2] wl[0] wl[6] wl[7] wl[3]
+ wl[4] wl[8] wl[5] a[3] wl[11] wl[12] wl[13] wl[14] wl[10] wl[9] a[4] wl[18]
+ wl[17] wl[16] wl[15] wl[19] wl[20] wl[21] wl[22] wl[23] wl[24] a[5] wl[25]